@<TRIPOS>MOLECULE
1xjr_clx.pdb
1005 1111 59 0 0
NUCLEIC_ACID
NO_CHARGES


@<TRIPOS>ATOM
      1 P          68.0840   42.0920   40.7180 P.3       1   G    0.0000
      2 OP1        67.0150   42.3730   41.6950 O.co2     1   G    0.0000
      3 OP2        67.9370   40.8620   39.9050 O.co2     1   G    0.0000
      4 O5'        68.1740   43.3640   39.7500 O.3       1   G    0.0000
      5 C5'        67.8240   44.6880   40.1040 C.3       1   G    0.0000
      6 C4'        67.7390   45.5350   38.8480 C.3       1   G    0.0000
      7 O4'        69.0130   45.5830   38.1460 O.3       1   G    0.0000
      8 C3'        66.7570   45.0210   37.8020 C.3       1   G    0.0000
      9 O3'        65.4380   45.3790   38.1540 O.3       1   G    0.0000
     10 C2'        67.2890   45.7250   36.5530 C.3       1   G    0.0000
     11 O2'        66.9640   47.1020   36.4690 O.3       1   G    0.0000
     12 C1'        68.8000   45.5530   36.7440 C.3       1   G    0.0000
     13 N9         69.2580   44.2740   36.1850 N.ar      1   G    0.0000
     14 C8         69.5870   43.1510   36.9070 C.ar      1   G    0.0000
     15 N7         69.9410   42.1370   36.1720 N.ar      1   G    0.0000
     16 C5         69.8410   42.6040   34.8700 C.ar      1   G    0.0000
     17 C6         70.1100   41.9210   33.6590 C.2       1   G    0.0000
     18 O6         70.4940   40.7480   33.5410 O.2       1   G    0.0000
     19 N1         69.8920   42.7300   32.5370 N.am      1   G    0.0000
     20 C2         69.4670   44.0470   32.6130 C.2       1   G    0.0000
     21 N2         69.3070   44.6870   31.4430 N.pl3     1   G    0.0000
     22 N3         69.2190   44.7010   33.7510 N.2       1   G    0.0000
     23 C4         69.4200   43.9190   34.8480 C.ar      1   G    0.0000
     24 P          64.2480   44.3680   37.8550 P.3       2   A    0.0000
     25 OP1        63.0120   44.9860   38.3650 O.co2     2   A    0.0000
     26 OP2        64.6230   42.9890   38.2450 O.co2     2   A    0.0000
     27 O5'        64.1040   44.3610   36.2670 O.3       2   A    0.0000
     28 C5'        63.8050   45.5620   35.5420 C.3       2   A    0.0000
     29 C4'        63.9500   45.2970   34.0630 C.3       2   A    0.0000
     30 O4'        65.3430   45.0330   33.7500 O.3       2   A    0.0000
     31 C3'        63.2340   44.0320   33.6040 C.3       2   A    0.0000
     32 O3'        61.8600   44.2490   33.4180 O.3       2   A    0.0000
     33 C2'        63.9520   43.7820   32.2870 C.3       2   A    0.0000
     34 O2'        63.5130   44.6570   31.2550 O.3       2   A    0.0000
     35 C1'        65.4020   44.0500   32.7250 C.3       2   A    0.0000
     36 N9         66.0470   42.8220   33.2170 N.ar      2   A    0.0000
     37 C8         66.3220   42.4580   34.5110 C.ar      2   A    0.0000
     38 N7         66.9000   41.2830   34.6430 N.ar      2   A    0.0000
     39 C5         67.0030   40.8350   33.3470 C.ar      2   A    0.0000
     40 C6         67.5320   39.6610   32.7950 C.ar      2   A    0.0000
     41 N6         68.0710   38.7020   33.5250 N.pl3     2   A    0.0000
     42 N1         67.4910   39.5020   31.4580 N.ar      2   A    0.0000
     43 C2         66.9630   40.4800   30.7060 C.ar      2   A    0.0000
     44 N3         66.4440   41.6450   31.1050 N.ar      2   A    0.0000
     45 C4         66.4880   41.7620   32.4530 C.ar      2   A    0.0000
     46 P          60.8320   43.0390   33.5990 P.3       3   G    0.0000
     47 OP1        59.5040   43.6960   33.6440 O.co2     3   G    0.0000
     48 OP2        61.2750   42.1430   34.6840 O.co2     3   G    0.0000
     49 O5'        60.9500   42.1500   32.2740 O.3       3   G    0.0000
     50 C5'        60.6540   42.6990   30.9950 C.3       3   G    0.0000
     51 C4'        61.0220   41.7070   29.9080 C.3       3   G    0.0000
     52 O4'        62.4530   41.5460   29.7840 O.3       3   G    0.0000
     53 C3'        60.5710   40.2710   30.1020 C.3       3   G    0.0000
     54 O3'        59.2100   40.2630   29.8470 O.3       3   G    0.0000
     55 C2'        61.3710   39.6650   28.9610 C.3       3   G    0.0000
     56 O2'        60.9690   40.1420   27.6900 O.3       3   G    0.0000
     57 C1'        62.7360   40.2560   29.2830 C.3       3   G    0.0000
     58 N9         63.4580   39.4750   30.2950 N.ar      3   G    0.0000
     59 C8         63.6450   39.7860   31.6260 C.ar      3   G    0.0000
     60 N7         64.3210   38.8860   32.2810 N.ar      3   G    0.0000
     61 C5         64.6050   37.9130   31.3350 C.ar      3   G    0.0000
     62 C6         65.3190   36.7010   31.4570 C.2       3   G    0.0000
     63 O6         65.8570   36.2340   32.4670 O.2       3   G    0.0000
     64 N1         65.3750   36.0050   30.2500 N.am      3   G    0.0000
     65 C2         64.8180   36.4300   29.0640 C.2       3   G    0.0000
     66 N2         64.9730   35.6360   27.9880 N.pl3     3   G    0.0000
     67 N3         64.1560   37.5700   28.9390 N.2       3   G    0.0000
     68 C4         64.0840   38.2580   30.1060 C.ar      3   G    0.0000
     69 P          58.1800   39.1530   30.3360 P.3       4   U    0.0000
     70 OP1        56.9290   39.5720   29.6690 O.co2     4   U    0.0000
     71 OP2        58.2370   38.9970   31.8050 O.co2     4   U    0.0000
     72 O5'        58.6260   37.7700   29.6440 O.3       4   U    0.0000
     73 C5'        58.4660   37.5220   28.2470 C.3       4   U    0.0000
     74 C4'        59.2690   36.3010   27.8400 C.3       4   U    0.0000
     75 O4'        60.6240   36.4440   28.3130 O.3       4   U    0.0000
     76 C3'        58.8640   34.9890   28.4860 C.3       4   U    0.0000
     77 O3'        57.7090   34.4230   27.8960 O.3       4   U    0.0000
     78 C2'        60.1130   34.1490   28.2390 C.3       4   U    0.0000
     79 O2'        60.3790   33.7730   26.8940 O.3       4   U    0.0000
     80 C1'        61.1540   35.1700   28.6160 C.3       4   U    0.0000
     81 N1         61.6050   35.1680   30.0270 N.am      4   U    0.0000
     82 C2         62.4610   34.1730   30.4600 C.2       4   U    0.0000
     83 O2         62.8330   33.2590   29.7480 O.2       4   U    0.0000
     84 N3         62.8610   34.2810   31.7690 N.am      4   U    0.0000
     85 C4         62.5020   35.2820   32.6700 C.2       4   U    0.0000
     86 O4         62.9360   35.2670   33.8150 O.2       4   U    0.0000
     87 C5         61.6120   36.2920   32.1470 C.2       4   U    0.0000
     88 C6         61.2110   36.1950   30.8680 C.2       4   U    0.0000
     89 P          56.6700   33.5840   28.7790 P.3       5   U    0.0000
     90 OP1        55.4670   33.4130   27.9410 O.co2     5   U    0.0000
     91 OP2        56.5540   34.1770   30.1260 O.co2     5   U    0.0000
     92 O5'        57.3960   32.1750   28.9920 O.3       5   U    0.0000
     93 C5'        57.7140   31.3130   27.9020 C.3       5   U    0.0000
     94 C4'        58.6260   30.2000   28.3850 C.3       5   U    0.0000
     95 O4'        59.8560   30.7570   28.8970 O.3       5   U    0.0000
     96 C3'        58.1170   29.4310   29.5980 C.3       5   U    0.0000
     97 O3'        57.1910   28.5010   29.2030 O.3       5   U    0.0000
     98 C2'        59.4060   28.7810   30.1140 C.3       5   U    0.0000
     99 O2'        60.0080   27.7660   29.3190 O.3       5   U    0.0000
    100 C1'        60.3020   29.9910   30.0110 C.3       5   U    0.0000
    101 N1         60.3940   30.8570   31.2300 N.am      5   U    0.0000
    102 C2         61.2010   30.4560   32.2790 C.2       5   U    0.0000
    103 O2         61.8100   29.4050   32.2920 O.2       5   U    0.0000
    104 N3         61.2760   31.3420   33.3270 N.am      5   U    0.0000
    105 C4         60.6270   32.5630   33.4400 C.2       5   U    0.0000
    106 O4         60.7710   33.2510   34.4490 O.2       5   U    0.0000
    107 C5         59.8020   32.9100   32.3090 C.2       5   U    0.0000
    108 C6         59.7250   32.0680   31.2690 C.2       5   U    0.0000
    109 P          55.8810   28.2260   30.0510 P.3       6   C    0.0000
    110 OP1        55.0240   27.5140   29.0800 O.co2     6   C    0.0000
    111 OP2        55.3770   29.4080   30.7810 O.co2     6   C    0.0000
    112 O5'        56.4210   27.1910   31.1550 O.3       6   C    0.0000
    113 C5'        57.1070   25.9570   30.7550 C.3       6   C    0.0000
    114 C4'        57.8860   25.3200   31.9080 C.3       6   C    0.0000
    115 O4'        59.0500   26.1400   32.2090 O.3       6   C    0.0000
    116 C3'        57.1720   25.2270   33.2620 C.3       6   C    0.0000
    117 O3'        56.3070   24.1130   33.3790 O.3       6   C    0.0000
    118 C2'        58.3580   25.1420   34.2260 C.3       6   C    0.0000
    119 O2'        59.0100   23.8850   34.2690 O.3       6   C    0.0000
    120 C1'        59.2960   26.1600   33.6030 C.3       6   C    0.0000
    121 N1         59.1000   27.5320   34.1320 N.am      6   C    0.0000
    122 C2         59.7420   27.8930   35.3250 C.2       6   C    0.0000
    123 O2         60.4490   27.0570   35.9050 O.2       6   C    0.0000
    124 N3         59.5890   29.1510   35.8210 N.2       6   C    0.0000
    125 C4         58.8250   30.0250   35.1770 C.2       6   C    0.0000
    126 N4         58.7110   31.2470   35.6980 N.pl3     6   C    0.0000
    127 C5         58.1590   29.6790   33.9650 C.2       6   C    0.0000
    128 C6         58.3230   28.4400   33.4790 C.2       6   C    0.0000
    129 P          54.9220   24.2550   34.1840 P.3       7   A    0.0000
    130 OP1        54.1820   23.0280   33.8490 O.co2     7   A    0.0000
    131 OP2        54.2880   25.5670   33.9790 O.co2     7   A    0.0000
    132 O5'        55.3930   24.2830   35.7240 O.3       7   A    0.0000
    133 C5'        56.0190   23.1380   36.3200 C.3       7   A    0.0000
    134 C4'        56.6800   23.4900   37.6380 C.3       7   A    0.0000
    135 O4'        57.6910   24.5180   37.4280 O.3       7   A    0.0000
    136 C3'        55.7930   24.0680   38.7400 C.3       7   A    0.0000
    137 O3'        55.0680   23.0640   39.4270 O.3       7   A    0.0000
    138 C2'        56.8980   24.6170   39.6320 C.3       7   A    0.0000
    139 O2'        57.5870   23.5950   40.3320 O.3       7   A    0.0000
    140 C1'        57.7980   25.3040   38.6020 C.3       7   A    0.0000
    141 N9         57.4140   26.7020   38.3240 N.ar      7   A    0.0000
    142 C8         56.7500   27.2340   37.2410 C.ar      7   A    0.0000
    143 N7         56.5650   28.5440   37.3190 N.ar      7   A    0.0000
    144 C5         57.1320   28.8940   38.5340 C.ar      7   A    0.0000
    145 C6         57.2950   30.1180   39.2250 C.ar      7   A    0.0000
    146 N6         56.8790   31.3160   38.8050 N.pl3     7   A    0.0000
    147 N1         57.9190   30.0820   40.4200 N.ar      7   A    0.0000
    148 C2         58.3590   28.9200   40.8920 C.ar      7   A    0.0000
    149 N3         58.2900   27.7220   40.3280 N.ar      7   A    0.0000
    150 C4         57.6560   27.7740   39.1520 C.ar      7   A    0.0000
    151 P          53.5700   23.2680   39.9710 P.3       8   C    0.0000
    152 OP1        53.0310   21.9080   40.2260 O.co2     8   C    0.0000
    153 OP2        52.8110   24.2170   39.1250 O.co2     8   C    0.0000
    154 O5'        53.7960   24.0360   41.3530 O.3       8   C    0.0000
    155 C5'        54.8140   23.6050   42.2740 C.3       8   C    0.0000
    156 C4'        55.1190   24.6970   43.2830 C.3       8   C    0.0000
    157 O4'        55.8410   25.7460   42.6050 O.3       8   C    0.0000
    158 C3'        53.9040   25.4370   43.8090 C.3       8   C    0.0000
    159 O3'        53.2720   24.6980   44.7890 O.3       8   C    0.0000
    160 C2'        54.5630   26.7060   44.3410 C.3       8   C    0.0000
    161 O2'        55.2080   26.5770   45.5880 O.3       8   C    0.0000
    162 C1'        55.6110   26.9650   43.2580 C.3       8   C    0.0000
    163 N1         55.1450   27.9660   42.2700 N.am      8   C    0.0000
    164 C2         55.2580   29.3210   42.6180 C.2       8   C    0.0000
    165 O2         55.7600   29.5870   43.7190 O.2       8   C    0.0000
    166 N3         54.8310   30.2850   41.7470 N.2       8   C    0.0000
    167 C4         54.3130   29.9090   40.5720 C.2       8   C    0.0000
    168 N4         53.9250   30.8610   39.7430 N.pl3     8   C    0.0000
    169 C5         54.1710   28.5320   40.1950 C.2       8   C    0.0000
    170 C6         54.5940   27.5950   41.0690 C.2       8   C    0.0000
    171 P          51.7230   24.8680   45.1010 P.3       9   C    0.0000
    172 OP1        51.4570   23.8360   46.1270 O.co2     9   C    0.0000
    173 OP2        50.9340   24.9350   43.8620 O.co2     9   C    0.0000
    174 O5'        51.4970   26.3310   45.6830 O.3       9   C    0.0000
    175 C5'        52.1760   26.7600   46.8430 C.3       9   C    0.0000
    176 C4'        52.0750   28.2640   46.9130 C.3       9   C    0.0000
    177 O4'        52.8660   28.9050   45.8720 O.3       9   C    0.0000
    178 C3'        50.6590   28.7660   46.6860 C.3       9   C    0.0000
    179 O3'        49.9300   28.5730   47.8670 O.3       9   C    0.0000
    180 C2'        50.9600   30.2230   46.3560 C.3       9   C    0.0000
    181 O2'        51.2340   30.9640   47.4990 O.3       9   C    0.0000
    182 C1'        52.2240   30.1200   45.5030 C.3       9   C    0.0000
    183 N1         51.8470   30.0730   44.0540 N.am      9   C    0.0000
    184 C2         51.7890   31.2560   43.3130 C.2       9   C    0.0000
    185 O2         52.0890   32.3000   43.8930 O.2       9   C    0.0000
    186 N3         51.4210   31.1970   41.9860 N.2       9   C    0.0000
    187 C4         51.1130   30.0130   41.4260 C.2       9   C    0.0000
    188 N4         50.7610   29.9500   40.1450 N.pl3     9   C    0.0000
    189 C5         51.1620   28.8090   42.1780 C.2       9   C    0.0000
    190 C6         51.5190   28.8810   43.4610 C.2       9   C    0.0000
    191 P          48.3410   28.6570   47.9770 P.3      10   G    0.0000
    192 OP1        47.7450   27.3110   47.9940 O.co2    10   G    0.0000
    193 OP2        47.7550   29.7170   47.1120 O.co2    10   G    0.0000
    194 O5'        48.3500   29.1790   49.4840 O.3      10   G    0.0000
    195 C5'        47.2140   29.0820   50.3450 C.3      10   G    0.0000
    196 C4'        47.5680   29.7670   51.6540 C.3      10   G    0.0000
    197 O4'        48.9290   29.4590   52.0910 O.3      10   G    0.0000
    198 C3'        47.6010   31.2820   51.5800 C.3      10   G    0.0000
    199 O3'        46.2850   31.7810   51.4850 O.3      10   G    0.0000
    200 C2'        48.2980   31.5560   52.9110 C.3      10   G    0.0000
    201 O2'        47.4620   31.2090   53.9940 O.3      10   G    0.0000
    202 C1'        49.4370   30.5420   52.8690 C.3      10   G    0.0000
    203 N9         50.7040   30.9740   52.2710 N.ar     10   G    0.0000
    204 C8         51.1380   30.6350   51.0130 C.ar     10   G    0.0000
    205 N7         52.3040   31.1430   50.7100 N.ar     10   G    0.0000
    206 C5         52.6770   31.8650   51.8250 C.ar     10   G    0.0000
    207 C6         53.8520   32.6250   52.0690 C.2      10   G    0.0000
    208 O6         54.8220   32.8150   51.3290 O.2      10   G    0.0000
    209 N1         53.8590   33.2160   53.3290 N.am     10   G    0.0000
    210 C2         52.8430   33.0700   54.2340 C.2      10   G    0.0000
    211 N2         53.0260   33.7030   55.3900 N.pl3    10   G    0.0000
    212 N3         51.7410   32.3570   54.0190 N.2      10   G    0.0000
    213 C4         51.7080   31.7720   52.7990 C.ar     10   G    0.0000
    214 P          46.0620   33.2310   50.8780 P.3      11   A    0.0000
    215 OP1        44.6400   33.7280   50.9640 O.co2    11   A    0.0000
    216 OP2        46.7480   33.2470   49.5690 O.co2    11   A    0.0000
    217 O5'        46.9360   34.0890   51.8990 O.3      11   A    0.0000
    218 C5'        46.3220   34.7880   52.9630 C.3      11   A    0.0000
    219 C4'        47.3470   35.6480   53.6860 C.3      11   A    0.0000
    220 O4'        48.5990   34.9500   53.9560 O.3      11   A    0.0000
    221 C3'        47.7820   36.8610   52.8970 C.3      11   A    0.0000
    222 O3'        46.7570   37.8010   52.9910 O.3      11   A    0.0000
    223 C2'        49.0490   37.2370   53.6620 C.3      11   A    0.0000
    224 O2'        48.8050   37.8640   54.9070 O.3      11   A    0.0000
    225 C1'        49.6780   35.8550   53.8530 C.3      11   A    0.0000
    226 N9         50.4610   35.5290   52.6730 N.ar     11   A    0.0000
    227 C8         49.9810   34.9060   51.5530 C.ar     11   A    0.0000
    228 N7         50.8580   34.7580   50.5920 N.ar     11   A    0.0000
    229 C5         52.0170   35.3330   51.1090 C.ar     11   A    0.0000
    230 C6         53.3220   35.4960   50.5690 C.ar     11   A    0.0000
    231 N6         53.6870   35.0740   49.3500 N.pl3    11   A    0.0000
    232 N1         54.2360   36.1100   51.3530 N.ar     11   A    0.0000
    233 C2         53.8820   36.5400   52.5750 C.ar     11   A    0.0000
    234 N3         52.6950   36.4510   53.1840 N.ar     11   A    0.0000
    235 C4         51.7880   35.8230   52.3970 C.ar     11   A    0.0000
    236 P          45.9070   38.2170   51.7100 P.3      12   G    0.0000
    237 OP1        44.6380   38.7800   52.1920 O.co2    12   G    0.0000
    238 OP2        45.9430   37.1110   50.7500 O.co2    12   G    0.0000
    239 O5'        46.7450   39.4300   51.1050 O.3      12   G    0.0000
    240 C5'        47.1960   40.5050   51.9430 C.3      12   G    0.0000
    241 C4'        47.7440   41.6250   51.0780 C.3      12   G    0.0000
    242 O4'        49.1030   41.3340   50.6190 O.3      12   G    0.0000
    243 C3'        46.9350   41.8300   49.8030 C.3      12   G    0.0000
    244 O3'        45.9490   42.8030   50.0140 O.3      12   G    0.0000
    245 C2'        47.9780   42.3770   48.8490 C.3      12   G    0.0000
    246 O2'        48.0050   43.7760   49.0260 O.3      12   G    0.0000
    247 C1'        49.2510   41.6110   49.2380 C.3      12   G    0.0000
    248 N9         49.2320   40.3270   48.5480 N.ar     12   G    0.0000
    249 C8         49.1600   39.0760   49.1160 C.ar     12   G    0.0000
    250 N7         49.1150   38.1040   48.2490 N.ar     12   G    0.0000
    251 C5         49.1500   38.7420   47.0210 C.ar     12   G    0.0000
    252 C6         49.1120   38.2130   45.7100 C.2      12   G    0.0000
    253 O6         49.0570   37.0330   45.3470 O.2      12   G    0.0000
    254 N1         49.1470   39.1920   44.7250 N.am     12   G    0.0000
    255 C2         49.2160   40.5370   44.9910 C.2      12   G    0.0000
    256 N2         49.2420   41.3400   43.9180 N.pl3    12   G    0.0000
    257 N3         49.2440   41.0500   46.2190 N.2      12   G    0.0000
    258 C4         49.2050   40.1040   47.1850 C.ar     12   G    0.0000
    259 P          44.5780   42.7700   49.1980 P.3      13   G    0.0000
    260 OP1        43.8620   43.9940   49.6360 O.co2    13   G    0.0000
    261 OP2        43.9550   41.4360   49.2740 O.co2    13   G    0.0000
    262 O5'        45.0090   42.9780   47.6750 O.3      13   G    0.0000
    263 C5'        45.2370   44.2700   47.0910 C.3      13   G    0.0000
    264 C4'        45.4160   44.1350   45.5860 C.3      13   G    0.0000
    265 O4'        46.4830   43.1830   45.2570 O.3      13   G    0.0000
    266 C3'        44.2000   43.6220   44.8240 C.3      13   G    0.0000
    267 O3'        43.2740   44.6960   44.6070 O.3      13   G    0.0000
    268 C2'        44.8810   43.0800   43.5540 C.3      13   G    0.0000
    269 O2'        45.3030   44.0750   42.6250 O.3      13   G    0.0000
    270 C1'        46.1300   42.4010   44.1270 C.3      13   G    0.0000
    271 N9         45.9750   40.9790   44.4850 N.ar     13   G    0.0000
    272 C8         46.0340   40.4230   45.7430 C.ar     13   G    0.0000
    273 N7         45.8650   39.1190   45.7550 N.ar     13   G    0.0000
    274 C5         45.6870   38.7720   44.4210 C.ar     13   G    0.0000
    275 C6         45.4460   37.5060   43.8250 C.2      13   G    0.0000
    276 O6         45.3500   36.3990   44.3810 O.2      13   G    0.0000
    277 N1         45.3120   37.5950   42.4390 N.am     13   G    0.0000
    278 C2         45.3920   38.7580   41.7200 C.2      13   G    0.0000
    279 N2         45.2440   38.6630   40.4030 N.pl3    13   G    0.0000
    280 N3         45.6070   39.9450   42.2630 N.2      13   G    0.0000
    281 C4         45.7460   39.8980   43.6240 C.ar     13   G    0.0000
    282 P          41.6720   44.4790   44.5300 P.3      14   C    0.0000
    283 OP1        41.0530   45.7960   44.2460 O.co2    14   C    0.0000
    284 OP2        41.1630   43.6160   45.6140 O.co2    14   C    0.0000
    285 O5'        41.5170   43.5890   43.2180 O.3      14   C    0.0000
    286 C5'        41.7820   44.0840   41.9070 C.3      14   C    0.0000
    287 C4'        41.6180   42.8890   41.0060 C.3      14   C    0.0000
    288 O4'        42.6340   41.9140   41.3500 O.3      14   C    0.0000
    289 C3'        40.3150   42.1400   41.2600 C.3      14   C    0.0000
    290 O3'        39.2150   42.7610   40.5960 O.3      14   C    0.0000
    291 C2'        40.6640   40.7520   40.7210 C.3      14   C    0.0000
    292 O2'        40.6420   40.6640   39.3080 O.3      14   C    0.0000
    293 C1'        42.0920   40.6020   41.2210 C.3      14   C    0.0000
    294 N1         42.1990   39.8480   42.5170 N.am     14   C    0.0000
    295 C2         42.1210   38.4270   42.5240 C.2      14   C    0.0000
    296 O2         41.9450   37.8130   41.4660 O.2      14   C    0.0000
    297 N3         42.2470   37.7480   43.7110 N.2      14   C    0.0000
    298 C4         42.4340   38.4350   44.8570 C.2      14   C    0.0000
    299 N4         42.5510   37.7410   45.9920 N.pl3    14   C    0.0000
    300 C5         42.5190   39.8660   44.8680 C.2      14   C    0.0000
    301 C6         42.3990   40.5240   43.6990 C.2      14   C    0.0000
    302 P          37.6960   42.3490   40.9160 P.3      15   C    0.0000
    303 OP1        36.8410   43.1670   40.0270 O.co2    15   C    0.0000
    304 OP2        37.4850   42.3610   42.3820 O.co2    15   C    0.0000
    305 O5'        37.6270   40.8210   40.4660 O.3      15   C    0.0000
    306 C5'        37.0730   40.3840   39.2530 C.3      15   C    0.0000
    307 C4'        36.9710   38.8720   39.2880 C.3      15   C    0.0000
    308 O4'        38.1390   38.3030   39.9230 O.3      15   C    0.0000
    309 C3'        35.8250   38.3180   40.1270 C.3      15   C    0.0000
    310 O3'        34.6490   38.3610   39.3710 O.3      15   C    0.0000
    311 C2'        36.2890   36.8770   40.3710 C.3      15   C    0.0000
    312 O2'        36.1160   35.9660   39.2890 O.3      15   C    0.0000
    313 C1'        37.7750   37.1060   40.5900 C.3      15   C    0.0000
    314 N1         38.1730   37.1810   42.0310 N.am     15   C    0.0000
    315 C2         38.1190   36.0120   42.8350 C.2      15   C    0.0000
    316 O2         37.7230   34.9560   42.3410 O.2      15   C    0.0000
    317 N3         38.5020   36.0750   44.1400 N.2      15   C    0.0000
    318 C4         38.9280   37.2510   44.6390 C.2      15   C    0.0000
    319 N4         39.3040   37.2930   45.9280 N.pl3    15   C    0.0000
    320 C5         38.9930   38.4470   43.8420 C.2      15   C    0.0000
    321 C6         38.6090   38.3710   42.5610 C.2      15   C    0.0000
    322 P          33.2360   38.6220   40.0460 P.3      16   A    0.0000
    323 OP1        32.2870   38.7700   38.9190 O.co2    16   A    0.0000
    324 OP2        33.3620   39.6790   41.0820 O.co2    16   A    0.0000
    325 O5'        32.9110   37.2440   40.7790 O.3      16   A    0.0000
    326 C5'        32.7270   36.0730   39.9890 C.3      16   A    0.0000
    327 C4'        32.6680   34.8450   40.8730 C.3      16   A    0.0000
    328 O4'        33.9370   34.6760   41.5510 O.3      16   A    0.0000
    329 C3'        31.6890   34.9630   42.0250 C.3      16   A    0.0000
    330 O3'        30.3760   34.7280   41.6010 O.3      16   A    0.0000
    331 C2'        32.2100   33.8830   42.9610 C.3      16   A    0.0000
    332 O2'        31.9800   32.5720   42.4870 O.3      16   A    0.0000
    333 C1'        33.6960   34.1810   42.8590 C.3      16   A    0.0000
    334 N9         34.3460   35.0720   43.8410 N.ar     16   A    0.0000
    335 C8         34.7490   36.3810   43.7060 C.ar     16   A    0.0000
    336 N7         35.3600   36.8530   44.7800 N.ar     16   A    0.0000
    337 C5         35.3640   35.7790   45.6690 C.ar     16   A    0.0000
    338 C6         35.8660   35.5940   46.9830 C.ar     16   A    0.0000
    339 N6         36.4930   36.5190   47.7050 N.pl3    16   A    0.0000
    340 N1         35.6900   34.3880   47.5550 N.ar     16   A    0.0000
    341 C2         35.0650   33.4170   46.8690 C.ar     16   A    0.0000
    342 N3         34.5530   33.4660   45.6400 N.ar     16   A    0.0000
    343 C4         34.7420   34.6800   45.0990 C.ar     16   A    0.0000
    344 P          29.2200   35.4520   42.4300 P.3      17   C    0.0000
    345 OP1        27.9330   35.1490   41.7640 O.co2    17   C    0.0000
    346 OP2        29.6260   36.8630   42.6690 O.co2    17   C    0.0000
    347 O5'        29.2720   34.6630   43.8240 O.3      17   C    0.0000
    348 C5'        29.0380   33.2490   43.9270 C.3      17   C    0.0000
    349 C4'        29.2060   32.8670   45.3840 C.3      17   C    0.0000
    350 O4'        30.5820   33.0940   45.8000 O.3      17   C    0.0000
    351 C3'        28.4190   33.7390   46.3520 C.3      17   C    0.0000
    352 O3'        27.1130   33.2560   46.4030 O.3      17   C    0.0000
    353 C2'        29.1930   33.5300   47.6530 C.3      17   C    0.0000
    354 O2'        28.9500   32.2850   48.2690 O.3      17   C    0.0000
    355 C1'        30.6270   33.5010   47.1550 C.3      17   C    0.0000
    356 N1         31.3710   34.7900   47.2360 N.am     17   C    0.0000
    357 C2         32.2510   34.9950   48.3210 C.2      17   C    0.0000
    358 O2         32.3980   34.1240   49.2070 O.2      17   C    0.0000
    359 N3         32.9410   36.1650   48.3820 N.2      17   C    0.0000
    360 C4         32.7980   37.0770   47.4300 C.2      17   C    0.0000
    361 N4         33.5140   38.1850   47.5790 N.pl3    17   C    0.0000
    362 C5         31.9160   36.8930   46.3160 C.2      17   C    0.0000
    363 C6         31.2340   35.7390   46.2570 C.2      17   C    0.0000
    364 P          25.8300   34.2060   46.5800 P.3      18   G    0.0000
    365 OP1        24.6760   33.4350   46.0730 O.co2    18   G    0.0000
    366 OP2        26.0840   35.5870   46.0990 O.co2    18   G    0.0000
    367 O5'        25.7690   34.3030   48.1750 O.3      18   G    0.0000
    368 C5'        25.7110   33.1670   49.0400 C.3      18   G    0.0000
    369 C4'        26.0620   33.6040   50.4670 C.3      18   G    0.0000
    370 O4'        27.4200   34.1530   50.4640 O.3      18   G    0.0000
    371 C3'        25.1760   34.6750   51.1130 C.3      18   G    0.0000
    372 O3'        25.1860   34.5400   52.5320 O.3      18   G    0.0000
    373 C2'        25.9400   35.9270   50.6810 C.3      18   G    0.0000
    374 O2'        25.6910   37.0710   51.4570 O.3      18   G    0.0000
    375 C1'        27.4010   35.4900   50.8840 C.3      18   G    0.0000
    376 N9         28.3180   36.3920   50.1830 N.ar     18   G    0.0000
    377 C8         28.2200   36.8630   48.8880 C.ar     18   G    0.0000
    378 N7         29.1410   37.7280   48.5510 N.ar     18   G    0.0000
    379 C5         29.9010   37.8360   49.7060 C.ar     18   G    0.0000
    380 C6         31.0390   38.6310   49.9690 C.2      18   G    0.0000
    381 O6         31.6150   39.4030   49.1990 O.2      18   G    0.0000
    382 N1         31.5260   38.4900   51.2630 N.am     18   G    0.0000
    383 C2         30.9670   37.6760   52.2110 C.2      18   G    0.0000
    384 N2         31.5850   37.6850   53.4060 N.pl3    18   G    0.0000
    385 N3         29.8890   36.9170   51.9880 N.2      18   G    0.0000
    386 C4         29.4080   37.0410   50.7190 C.ar     18   G    0.0000
    387 P          24.2560   33.5140   53.3460 P.3      19   C    0.0000
    388 OP1        23.5960   32.6700   52.3250 O.co2    19   C    0.0000
    389 OP2        23.5180   34.2780   54.3850 O.co2    19   C    0.0000
    390 O5'        25.2370   32.6110   54.2300 O.3      19   C    0.0000
    391 C5'        26.4430   32.0450   53.7160 C.3      19   C    0.0000
    392 C4'        27.6250   33.0150   53.6590 C.3      19   C    0.0000
    393 O4'        27.4390   34.2190   54.4290 O.3      19   C    0.0000
    394 C3'        28.9180   32.5450   54.2900 C.3      19   C    0.0000
    395 O3'        29.4600   31.5490   53.5220 O.3      19   C    0.0000
    396 C2'        29.7390   33.8190   54.1890 C.3      19   C    0.0000
    397 O2'        30.1470   34.1110   52.8780 O.3      19   C    0.0000
    398 C1'        28.6980   34.8290   54.6290 C.3      19   C    0.0000
    399 N1         28.7990   35.1960   56.0560 N.am     19   C    0.0000
    400 C2         29.8260   36.0520   56.4880 C.2      19   C    0.0000
    401 O2         30.6520   36.4800   55.6580 O.2      19   C    0.0000
    402 N3         29.8960   36.3820   57.8150 N.2      19   C    0.0000
    403 C4         28.9950   35.9000   58.6720 C.2      19   C    0.0000
    404 N4         29.0990   36.2620   59.9470 N.pl3    19   C    0.0000
    405 C5         27.9510   35.0290   58.2580 C.2      19   C    0.0000
    406 C6         27.8990   34.7020   56.9590 C.2      19   C    0.0000
    407 P          29.9570   30.2310   54.2450 P.3      20   G    0.0000
    408 OP1        30.0120   29.2190   53.1550 O.co2    20   G    0.0000
    409 OP2        29.3060   29.9770   55.5510 O.co2    20   G    0.0000
    410 O5'        31.4580   30.6720   54.5570 O.3      20   G    0.0000
    411 C5'        32.3940   30.8480   53.4670 C.3      20   G    0.0000
    412 C4'        33.5490   31.7060   53.9470 C.3      20   G    0.0000
    413 O4'        33.0700   33.0130   54.3620 O.3      20   G    0.0000
    414 C3'        34.2020   31.1940   55.2220 C.3      20   G    0.0000
    415 O3'        35.0170   30.0820   54.9040 O.3      20   G    0.0000
    416 C2'        34.9460   32.4540   55.6590 C.3      20   G    0.0000
    417 O2'        36.0630   32.7390   54.8470 O.3      20   G    0.0000
    418 C1'        33.8830   33.5200   55.4140 C.3      20   G    0.0000
    419 N9         33.1590   33.7600   56.6580 N.ar     20   G    0.0000
    420 C8         32.1160   33.0270   57.1650 C.ar     20   G    0.0000
    421 N7         31.6930   33.4670   58.3250 N.ar     20   G    0.0000
    422 C5         32.5120   34.5440   58.6180 C.ar     20   G    0.0000
    423 C6         32.5180   35.4010   59.7530 C.2      20   G    0.0000
    424 O6         31.7710   35.3720   60.7610 O.2      20   G    0.0000
    425 N1         33.5140   36.3750   59.6460 N.am     20   G    0.0000
    426 C2         34.3610   36.4950   58.5750 C.2      20   G    0.0000
    427 N2         35.2340   37.4970   58.6460 N.pl3    20   G    0.0000
    428 N3         34.3640   35.6980   57.5120 N.2      20   G    0.0000
    429 C4         33.4140   34.7400   57.5970 C.ar     20   G    0.0000
    430 P          35.2570   28.8380   55.8950 P.3      21   G    0.0000
    431 OP1        36.5320   28.2550   55.3840 O.co2    21   G    0.0000
    432 OP2        34.0440   28.0000   56.0120 O.co2    21   G    0.0000
    433 O5'        35.5650   29.4800   57.3260 O.3      21   G    0.0000
    434 C5'        36.8580   30.1000   57.4550 C.3      21   G    0.0000
    435 C4'        37.0620   30.7040   58.8150 C.3      21   G    0.0000
    436 O4'        36.0810   31.7440   59.0130 O.3      21   G    0.0000
    437 C3'        36.8270   29.7060   59.9240 C.3      21   G    0.0000
    438 O3'        38.0300   29.0350   60.1910 O.3      21   G    0.0000
    439 C2'        36.4530   30.6490   61.0470 C.3      21   G    0.0000
    440 O2'        37.6270   31.2280   61.5890 O.3      21   G    0.0000
    441 C1'        35.5310   31.6450   60.3170 C.3      21   G    0.0000
    442 N9         34.1380   31.1540   60.3880 N.ar     21   G    0.0000
    443 C8         33.4830   30.2420   59.5770 C.ar     21   G    0.0000
    444 N7         32.2550   29.9480   59.9300 N.ar     21   G    0.0000
    445 C5         32.0880   30.7220   61.0670 C.ar     21   G    0.0000
    446 C6         30.9650   30.8390   61.9220 C.2      21   G    0.0000
    447 O6         29.8840   30.2570   61.7990 O.2      21   G    0.0000
    448 N1         31.1730   31.7270   62.9870 N.am     21   G    0.0000
    449 C2         32.3480   32.4170   63.1900 C.2      21   G    0.0000
    450 N2         32.4020   33.2310   64.2500 N.pl3    21   G    0.0000
    451 N3         33.4160   32.3060   62.3990 N.2      21   G    0.0000
    452 C4         33.2230   31.4510   61.3620 C.ar     21   G    0.0000
    453 P          38.1000   27.4710   60.5610 P.3      22   A    0.0000
    454 OP1        39.5230   27.2060   60.8650 O.co2    22   A    0.0000
    455 OP2        37.4430   26.6760   59.5080 O.co2    22   A    0.0000
    456 O5'        37.2200   27.3300   61.8850 O.3      22   A    0.0000
    457 C5'        37.0530   26.0510   62.4950 C.3      22   A    0.0000
    458 C4'        36.8640   26.1700   64.0010 C.3      22   A    0.0000
    459 O4'        38.1380   26.4040   64.6590 O.3      22   A    0.0000
    460 C3'        35.9910   27.3300   64.4540 C.3      22   A    0.0000
    461 O3'        34.6400   26.9180   64.4470 O.3      22   A    0.0000
    462 C2'        36.5010   27.6270   65.8580 C.3      22   A    0.0000
    463 O2'        35.9140   26.7680   66.8140 O.3      22   A    0.0000
    464 C1'        37.9920   27.3180   65.7390 C.3      22   A    0.0000
    465 N9         38.8600   28.4870   65.5100 N.ar     22   A    0.0000
    466 C8         39.4400   28.8690   64.3260 C.ar     22   A    0.0000
    467 N7         40.1730   29.9510   64.4170 N.ar     22   A    0.0000
    468 C5         40.0720   30.3160   65.7480 C.ar     22   A    0.0000
    469 C6         40.6220   31.3880   66.4910 C.ar     22   A    0.0000
    470 N6         41.4170   32.3230   65.9630 N.pl3    22   A    0.0000
    471 N1         40.3230   31.4660   67.8120 N.ar     22   A    0.0000
    472 C2         39.5250   30.5310   68.3640 C.ar     22   A    0.0000
    473 N3         38.9500   29.4820   67.7610 N.ar     22   A    0.0000
    474 C4         39.2650   29.4260   66.4410 C.ar     22   A    0.0000
    475 P          33.5100   27.9480   63.9970 P.3      23   G    0.0000
    476 OP1        32.2070   27.2620   63.9700 O.co2    23   G    0.0000
    477 OP2        33.9590   28.5920   62.7450 O.co2    23   G    0.0000
    478 O5'        33.5720   28.9960   65.2140 O.3      23   G    0.0000
    479 C5'        32.8130   28.8870   66.4300 C.3      23   G    0.0000
    480 C4'        33.2630   29.9460   67.4300 C.3      23   G    0.0000
    481 O4'        34.7070   30.0630   67.4290 O.3      23   G    0.0000
    482 C3'        32.7860   31.3710   67.1740 C.3      23   G    0.0000
    483 O3'        31.5460   31.5980   67.8410 O.3      23   G    0.0000
    484 C2'        33.8800   32.2560   67.7860 C.3      23   G    0.0000
    485 O2'        33.7140   32.5080   69.1830 O.3      23   G    0.0000
    486 C1'        35.1260   31.4160   67.5560 C.3      23   G    0.0000
    487 N9         35.9440   31.8030   66.3980 N.ar     23   G    0.0000
    488 C8         35.8540   31.3160   65.1120 C.ar     23   G    0.0000
    489 N7         36.7320   31.8290   64.2860 N.ar     23   G    0.0000
    490 C5         37.4700   32.7090   65.0730 C.ar     23   G    0.0000
    491 C6         38.5610   33.5570   64.7340 C.2      23   G    0.0000
    492 O6         39.1170   33.7080   63.6420 O.2      23   G    0.0000
    493 N1         39.0210   34.2890   65.8240 N.am     23   G    0.0000
    494 C2         38.4820   34.2110   67.0780 C.2      23   G    0.0000
    495 N2         39.0490   34.9930   67.9920 N.pl3    23   G    0.0000
    496 N3         37.4650   33.4300   67.4190 N.2      23   G    0.0000
    497 C4         36.9980   32.7020   66.3730 C.ar     23   G    0.0000
    498 P          30.1600   31.7000   67.0510 P.3      24   U    0.0000
    499 OP1        29.6540   30.3160   66.9260 O.co2    24   U    0.0000
    500 OP2        30.3260   32.5180   65.8250 O.co2    24   U    0.0000
    501 O5'        29.2720   32.5060   68.1180 O.3      24   U    0.0000
    502 C5'        29.2680   33.9380   68.1660 C.3      24   U    0.0000
    503 C4'        29.6280   34.5310   69.5250 C.3      24   U    0.0000
    504 O4'        29.6420   33.5670   70.6160 O.3      24   U    0.0000
    505 C3'        31.0020   35.2030   69.5780 C.3      24   U    0.0000
    506 O3'        30.8110   36.6160   69.5870 O.3      24   U    0.0000
    507 C2'        31.6550   34.6700   70.8640 C.3      24   U    0.0000
    508 O2'        32.3640   35.6260   71.6430 O.3      24   U    0.0000
    509 C1'        30.4040   34.2230   71.6140 C.3      24   U    0.0000
    510 N1         30.6220   33.4160   72.8840 N.am     24   U    0.0000
    511 C2         29.7280   33.6310   73.9120 C.2      24   U    0.0000
    512 O2         28.7980   34.4110   73.8170 O.2      24   U    0.0000
    513 N3         29.9590   32.8930   75.0540 N.am     24   U    0.0000
    514 C4         30.9860   31.9780   75.2700 C.2      24   U    0.0000
    515 O4         31.0590   31.3960   76.3570 O.2      24   U    0.0000
    516 C5         31.8940   31.8080   74.1460 C.2      24   U    0.0000
    517 C6         31.6830   32.5200   73.0240 C.2      24   U    0.0000
    518 P          31.6850   37.5190   68.5980 P.3      25   A    0.0000
    519 OP1        31.5480   38.9380   69.0000 O.co2    25   A    0.0000
    520 OP2        31.3470   37.1100   67.2110 O.co2    25   A    0.0000
    521 O5'        33.1840   37.0220   68.8910 O.3      25   A    0.0000
    522 C5'        33.9890   37.6550   69.8710 C.3      25   A    0.0000
    523 C4'        35.3250   38.0060   69.2720 C.3      25   A    0.0000
    524 O4'        35.8540   36.8260   68.6280 O.3      25   A    0.0000
    525 C3'        35.2560   39.0200   68.1500 C.3      25   A    0.0000
    526 O3'        35.2280   40.3420   68.6480 O.3      25   A    0.0000
    527 C2'        36.5570   38.7260   67.4160 C.3      25   A    0.0000
    528 O2'        37.6900   39.2540   68.0540 O.3      25   A    0.0000
    529 C1'        36.6270   37.2170   67.5060 C.3      25   A    0.0000
    530 N9         36.1610   36.5340   66.2980 N.ar     25   A    0.0000
    531 C8         35.0800   35.7080   66.1890 C.ar     25   A    0.0000
    532 N7         34.8990   35.2240   64.9860 N.ar     25   A    0.0000
    533 C5         35.9330   35.7720   64.2470 C.ar     25   A    0.0000
    534 C6         36.3180   35.6320   62.8850 C.ar     25   A    0.0000
    535 N6         35.6350   34.8660   62.0250 N.pl3    25   A    0.0000
    536 N1         37.4190   36.2980   62.4420 N.ar     25   A    0.0000
    537 C2         38.0790   37.0540   63.3330 C.ar     25   A    0.0000
    538 N3         37.8120   37.2600   64.6380 N.ar     25   A    0.0000
    539 C4         36.7220   36.5810   65.0420 C.ar     25   A    0.0000
    540 P          34.5670   41.5180   67.7800 P.3      26   C    0.0000
    541 OP1        34.8660   42.8080   68.4470 O.co2    26   C    0.0000
    542 OP2        33.1550   41.1450   67.4910 O.co2    26   C    0.0000
    543 O5'        35.3910   41.4640   66.4120 O.3      26   C    0.0000
    544 C5'        36.5860   42.2020   66.2260 C.3      26   C    0.0000
    545 C4'        36.9890   42.1350   64.7630 C.3      26   C    0.0000
    546 O4'        37.1870   40.7570   64.3510 O.3      26   C    0.0000
    547 C3'        35.9360   42.6390   63.7930 C.3      26   C    0.0000
    548 O3'        36.0730   44.0190   63.6390 O.3      26   C    0.0000
    549 C2'        36.3070   41.8970   62.5180 C.3      26   C    0.0000
    550 O2'        37.4620   42.4000   61.8900 O.3      26   C    0.0000
    551 C1'        36.6310   40.5240   63.0710 C.3      26   C    0.0000
    552 N1         35.4540   39.5700   63.1110 N.am     26   C    0.0000
    553 C2         35.1350   38.8470   61.9470 C.2      26   C    0.0000
    554 O2         35.8100   39.0070   60.9120 O.2      26   C    0.0000
    555 N3         34.0890   37.9820   61.9840 N.2      26   C    0.0000
    556 C4         33.3780   37.8360   63.0990 C.2      26   C    0.0000
    557 N4         32.3670   36.9790   63.0720 N.pl3    26   C    0.0000
    558 C5         33.6750   38.5570   64.2840 C.2      26   C    0.0000
    559 C6         34.7100   39.4000   64.2440 C.2      26   C    0.0000
    560 P          34.8000   44.8930   63.2540 P.3      27   G    0.0000
    561 OP1        35.1330   46.3070   63.5620 O.co2    27   G    0.0000
    562 OP2        33.5470   44.2970   63.8050 O.co2    27   G    0.0000
    563 O5'        34.8350   44.6480   61.6750 O.3      27   G    0.0000
    564 C5'        35.9000   45.1410   60.8830 C.3      27   G    0.0000
    565 C4'        35.6450   44.7610   59.4370 C.3      27   G    0.0000
    566 O4'        35.3960   43.3280   59.3120 O.3      27   G    0.0000
    567 C3'        34.4220   45.4250   58.8150 C.3      27   G    0.0000
    568 O3'        34.6410   45.5130   57.4180 O.3      27   G    0.0000
    569 C2'        33.3200   44.4200   59.1420 C.3      27   G    0.0000
    570 O2'        32.1570   44.5260   58.3390 O.3      27   G    0.0000
    571 C1'        34.0590   43.0970   58.8980 C.3      27   G    0.0000
    572 N9         33.3610   42.0330   59.6230 N.ar     27   G    0.0000
    573 C8         32.9620   42.0610   60.9370 C.ar     27   G    0.0000
    574 N7         32.3140   40.9920   61.3030 N.ar     27   G    0.0000
    575 C5         32.2530   40.2110   60.1570 C.ar     27   G    0.0000
    576 C6         31.6580   38.9360   59.9440 C.2      27   G    0.0000
    577 O6         31.0540   38.2280   60.7660 O.2      27   G    0.0000
    578 N1         31.8110   38.4810   58.6340 N.am     27   G    0.0000
    579 C2         32.4720   39.1870   57.6520 C.2      27   G    0.0000
    580 N2         32.5230   38.6070   56.4490 N.pl3    27   G    0.0000
    581 N3         33.0350   40.3860   57.8310 N.2      27   G    0.0000
    582 C4         32.8900   40.8410   59.1090 C.ar     27   G    0.0000
    583 P          34.0020   46.6810   56.5510 P.3      28   A    0.0000
    584 OP1        35.1200   47.5010   56.0230 O.co2    28   A    0.0000
    585 OP2        32.9570   47.3620   57.3530 O.co2    28   A    0.0000
    586 O5'        33.2930   45.7880   55.4100 O.3      28   A    0.0000
    587 C5'        33.9520   45.5660   54.1790 C.3      28   A    0.0000
    588 C4'        33.0850   44.9690   53.0760 C.3      28   A    0.0000
    589 O4'        32.5500   43.6710   53.4270 O.3      28   A    0.0000
    590 C3'        31.8530   45.7840   52.6770 C.3      28   A    0.0000
    591 O3'        32.1110   46.8970   51.7180 O.3      28   A    0.0000
    592 C2'        30.8640   44.7120   52.2000 C.3      28   A    0.0000
    593 O2'        30.5090   44.7900   50.8390 O.3      28   A    0.0000
    594 C1'        31.6390   43.4110   52.3830 C.3      28   A    0.0000
    595 N9         30.7100   42.3120   52.6570 N.ar     28   A    0.0000
    596 C8         30.5090   41.6740   53.8410 C.ar     28   A    0.0000
    597 N7         29.5900   40.7420   53.7760 N.ar     28   A    0.0000
    598 C5         29.1430   40.7700   52.4690 C.ar     28   A    0.0000
    599 C6         28.1700   40.0200   51.7720 C.ar     28   A    0.0000
    600 N6         27.4410   39.0540   52.3290 N.pl3    28   A    0.0000
    601 N1         27.9710   40.3010   50.4680 N.ar     28   A    0.0000
    602 C2         28.6950   41.2770   49.8960 C.ar     28   A    0.0000
    603 N3         29.6340   42.0490   50.4500 N.ar     28   A    0.0000
    604 C4         29.8190   41.7410   51.7570 C.ar     28   A    0.0000
    605 P          33.2480   46.9700   50.5770 P.3      29   U    0.0000
    606 OP1        33.1660   48.3590   50.1050 O.co2    29   U    0.0000
    607 OP2        33.0920   45.8250   49.6480 O.co2    29   U    0.0000
    608 O5'        34.6700   46.8390   51.2910 O.3      29   U    0.0000
    609 C5'        35.8690   46.7010   50.5000 C.3      29   U    0.0000
    610 C4'        37.0440   47.3530   51.2180 C.3      29   U    0.0000
    611 O4'        36.9190   48.8070   51.1780 O.3      29   U    0.0000
    612 C3'        37.1510   46.9840   52.6970 C.3      29   U    0.0000
    613 O3'        38.4730   46.6040   53.0230 O.3      29   U    0.0000
    614 C2'        36.7400   48.2700   53.4080 C.3      29   U    0.0000
    615 O2'        37.3470   48.4000   54.6750 O.3      29   U    0.0000
    616 C1'        37.2390   49.3350   52.4390 C.3      29   U    0.0000
    617 N1         36.5510   50.6420   52.6070 N.am     29   U    0.0000
    618 C2         37.2550   51.7390   53.0940 C.2      29   U    0.0000
    619 O2         38.4390   51.7160   53.3860 O.2      29   U    0.0000
    620 N3         36.5130   52.8970   53.2290 N.am     29   U    0.0000
    621 C4         35.1630   53.0720   52.9380 C.2      29   U    0.0000
    622 O4         34.6340   54.1720   53.1050 O.2      29   U    0.0000
    623 C5         34.4990   51.8840   52.4440 C.2      29   U    0.0000
    624 C6         35.2000   50.7440   52.3000 C.2      29   U    0.0000
    625 P          38.9330   45.0940   53.2910 P.3      30   C    0.0000
    626 OP1        40.0470   45.1770   54.2730 O.co2    30   C    0.0000
    627 OP2        39.1400   44.4430   51.9830 O.co2    30   C    0.0000
    628 O5'        37.7000   44.3580   54.0020 O.3      30   C    0.0000
    629 C5'        37.6630   44.3050   55.4380 C.3      30   C    0.0000
    630 C4'        36.8800   43.1170   55.9620 C.3      30   C    0.0000
    631 O4'        35.6180   43.0600   55.2840 O.3      30   C    0.0000
    632 C3'        37.4630   41.7540   55.6550 C.3      30   C    0.0000
    633 O3'        38.4400   41.4550   56.6150 O.3      30   C    0.0000
    634 C2'        36.2420   40.8540   55.8080 C.3      30   C    0.0000
    635 O2'        35.8070   40.6930   57.1440 O.3      30   C    0.0000
    636 C1'        35.2060   41.7240   55.1410 C.3      30   C    0.0000
    637 N1         34.9230   41.5030   53.7160 N.am     30   C    0.0000
    638 C2         34.0820   40.4480   53.3450 C.2      30   C    0.0000
    639 O2         33.6210   39.7010   54.2240 O.2      30   C    0.0000
    640 N3         33.8040   40.2800   52.0140 N.2      30   C    0.0000
    641 C4         34.3070   41.1090   51.0970 C.2      30   C    0.0000
    642 N4         33.9890   40.9030   49.8290 N.pl3    30   C    0.0000
    643 C5         35.1670   42.1820   51.4600 C.2      30   C    0.0000
    644 C6         35.4390   42.3420   52.7690 C.2      30   C    0.0000
    645 P          39.7900   40.7700   56.1500 P.3      31   G    0.0000
    646 OP1        40.7490   40.9480   57.2750 O.co2    31   G    0.0000
    647 OP2        40.0930   41.1890   54.7750 O.co2    31   G    0.0000
    648 O5'        39.4000   39.2370   56.0760 O.3      31   G    0.0000
    649 C5'        39.2430   38.4950   57.2710 C.3      31   G    0.0000
    650 C4'        38.5170   37.2000   56.9430 C.3      31   G    0.0000
    651 O4'        37.1780   37.4730   56.4220 O.3      31   G    0.0000
    652 C3'        39.1960   36.3620   55.8640 C.3      31   G    0.0000
    653 O3'        40.1900   35.5520   56.4530 O.3      31   G    0.0000
    654 C2'        38.0320   35.5170   55.3930 C.3      31   G    0.0000
    655 O2'        37.8120   34.4760   56.3230 O.3      31   G    0.0000
    656 C1'        36.8980   36.5430   55.3890 C.3      31   G    0.0000
    657 N9         36.7950   37.2250   54.0950 N.ar     31   G    0.0000
    658 C8         37.5310   38.2820   53.6150 C.ar     31   G    0.0000
    659 N7         37.1910   38.6380   52.4010 N.ar     31   G    0.0000
    660 C5         36.1800   37.7650   52.0450 C.ar     31   G    0.0000
    661 C6         35.4240   37.6520   50.8570 C.2      31   G    0.0000
    662 O6         35.5020   38.3500   49.8390 O.2      31   G    0.0000
    663 N1         34.4870   36.6110   50.9060 N.am     31   G    0.0000
    664 C2         34.2990   35.7870   51.9910 C.2      31   G    0.0000
    665 N2         33.3640   34.8450   51.9010 N.pl3    31   G    0.0000
    666 N3         34.9980   35.8850   53.1090 N.2      31   G    0.0000
    667 C4         35.9200   36.8920   53.0760 C.ar     31   G    0.0000
    668 P          41.7070   36.0410   56.5960 P.3      32   A    0.0000
    669 OP1        41.8350   36.4830   58.0120 O.co2    32   A    0.0000
    670 OP2        42.1160   36.8480   55.4290 O.co2    32   A    0.0000
    671 O5'        42.5720   34.7310   56.4210 O.3      32   A    0.0000
    672 C5'        42.4480   33.9770   55.2580 C.3      32   A    0.0000
    673 C4'        43.3880   32.8190   55.4640 C.3      32   A    0.0000
    674 O4'        44.7370   33.3340   55.4270 O.3      32   A    0.0000
    675 C3'        43.2360   32.1070   56.8090 C.3      32   A    0.0000
    676 O3'        43.1700   30.7290   56.4980 O.3      32   A    0.0000
    677 C2'        44.4890   32.4860   57.5840 C.3      32   A    0.0000
    678 O2'        45.0150   31.4590   58.4000 O.3      32   A    0.0000
    679 C1'        45.4740   32.7360   56.4580 C.3      32   A    0.0000
    680 N9         46.5190   33.6560   56.8610 N.ar     32   A    0.0000
    681 C8         46.3620   34.9010   57.4040 C.ar     32   A    0.0000
    682 N7         47.4970   35.4920   57.7040 N.ar     32   A    0.0000
    683 C5         48.4600   34.5820   57.3210 C.ar     32   A    0.0000
    684 C6         49.8700   34.6150   57.3550 C.ar     32   A    0.0000
    685 N6         50.5690   35.6480   57.8200 N.pl3    32   A    0.0000
    686 N1         50.5270   33.5300   56.8850 N.ar     32   A    0.0000
    687 C2         49.8240   32.4880   56.4140 C.ar     32   A    0.0000
    688 N3         48.5040   32.3470   56.3290 N.ar     32   A    0.0000
    689 C4         47.8740   33.4350   56.8000 C.ar     32   A    0.0000
    690 P          42.1850   29.7200   57.2600 P.3      33   G    0.0000
    691 OP1        41.8330   30.2550   58.5860 O.co2    33   G    0.0000
    692 OP2        42.8260   28.3790   57.1360 O.co2    33   G    0.0000
    693 O5'        40.9280   29.6890   56.3010 O.3      33   G    0.0000
    694 C5'        41.0890   29.4900   54.9140 C.3      33   G    0.0000
    695 C4'        39.7090   29.2400   54.3450 C.3      33   G    0.0000
    696 O4'        38.8390   30.3880   54.5450 O.3      33   G    0.0000
    697 C3'        39.6600   29.0330   52.8500 C.3      33   G    0.0000
    698 O3'        40.0790   27.7030   52.5650 O.3      33   G    0.0000
    699 C2'        38.1770   29.2650   52.5960 C.3      33   G    0.0000
    700 O2'        37.3870   28.2270   53.1440 O.3      33   G    0.0000
    701 C1'        37.9410   30.4930   53.4600 C.3      33   G    0.0000
    702 N9         38.1330   31.7690   52.8010 N.ar     33   G    0.0000
    703 C8         39.1700   32.6420   52.9850 C.ar     33   G    0.0000
    704 N7         39.0900   33.7200   52.2650 N.ar     33   G    0.0000
    705 C5         37.9110   33.5480   51.5510 C.ar     33   G    0.0000
    706 C6         37.2930   34.3910   50.5940 C.2      33   G    0.0000
    707 O6         37.6760   35.5060   50.1840 O.2      33   G    0.0000
    708 N1         36.0970   33.8530   50.1100 N.am     33   G    0.0000
    709 C2         35.5600   32.6370   50.4940 C.2      33   G    0.0000
    710 N2         34.3950   32.2850   49.9120 N.pl3    33   G    0.0000
    711 N3         36.1400   31.8430   51.4000 N.2      33   G    0.0000
    712 C4         37.3010   32.3580   51.8830 C.ar     33   G    0.0000
    713 P          40.9790   27.4790   51.2810 P.3      34   G    0.0000
    714 OP1        41.4190   26.0720   51.2830 O.co2    34   G    0.0000
    715 OP2        41.9690   28.5820   51.1530 O.co2    34   G    0.0000
    716 O5'        39.9170   27.6880   50.1120 O.3      34   G    0.0000
    717 C5'        38.7400   26.8620   49.9600 C.3      34   G    0.0000
    718 C4'        38.0650   27.2260   48.6470 C.3      34   G    0.0000
    719 O4'        37.4110   28.5280   48.7860 O.3      34   G    0.0000
    720 C3'        39.0290   27.4620   47.4870 C.3      34   G    0.0000
    721 O3'        39.4980   26.2710   46.8770 O.3      34   G    0.0000
    722 C2'        38.1470   28.2820   46.5610 C.3      34   G    0.0000
    723 O2'        37.1860   27.4840   45.9120 O.3      34   G    0.0000
    724 C1'        37.4260   29.2020   47.5390 C.3      34   G    0.0000
    725 N9         38.0780   30.4930   47.6810 N.ar     34   G    0.0000
    726 C8         38.8200   30.9460   48.7410 C.ar     34   G    0.0000
    727 N7         39.2860   32.1650   48.5900 N.ar     34   G    0.0000
    728 C5         38.8300   32.5340   47.3370 C.ar     34   G    0.0000
    729 C6         38.9970   33.7460   46.6230 C.2      34   G    0.0000
    730 O6         39.6180   34.7560   46.9880 O.2      34   G    0.0000
    731 N1         38.3550   33.7190   45.3820 N.am     34   G    0.0000
    732 C2         37.6460   32.6490   44.9130 C.2      34   G    0.0000
    733 N2         37.0720   32.7640   43.7160 N.pl3    34   G    0.0000
    734 N3         37.4850   31.5220   45.5750 N.2      34   G    0.0000
    735 C4         38.0910   31.5210   46.7730 C.ar     34   G    0.0000
    736 P          40.9540   26.2440   46.1730 P.3      35   G    0.0000
    737 OP1        41.1350   24.8530   45.6850 O.co2    35   G    0.0000
    738 OP2        42.0440   26.8240   47.0020 O.co2    35   G    0.0000
    739 O5'        40.7430   27.3000   44.9740 O.3      35   G    0.0000
    740 C5'        40.2650   26.9040   43.7210 C.3      35   G    0.0000
    741 C4'        39.9390   28.1290   42.9050 C.3      35   G    0.0000
    742 O4'        39.5500   29.2180   43.7630 O.3      35   G    0.0000
    743 C3'        41.1260   28.7110   42.1850 C.3      35   G    0.0000
    744 O3'        41.4630   27.9170   41.0720 O.3      35   G    0.0000
    745 C2'        40.5600   30.0710   41.8040 C.3      35   G    0.0000
    746 O2'        39.5940   30.0240   40.7750 O.3      35   G    0.0000
    747 C1'        39.8550   30.4320   43.0980 C.3      35   G    0.0000
    748 N9         40.6270   31.2990   43.9840 N.ar     35   G    0.0000
    749 C8         41.1320   30.9660   45.2240 C.ar     35   G    0.0000
    750 N7         41.7610   31.9450   45.8180 N.ar     35   G    0.0000
    751 C5         41.6720   32.9990   44.9050 C.ar     35   G    0.0000
    752 C6         42.1660   34.3240   45.0010 C.2      35   G    0.0000
    753 O6         42.8150   34.8190   45.9340 O.2      35   G    0.0000
    754 N1         41.8550   35.0900   43.8860 N.am     35   G    0.0000
    755 C2         41.1540   34.6230   42.7980 C.2      35   G    0.0000
    756 N2         40.9430   35.4970   41.7960 N.pl3    35   G    0.0000
    757 N3         40.6800   33.3840   42.7020 N.2      35   G    0.0000
    758 C4         40.9770   32.6230   43.7800 C.ar     35   G    0.0000
    759 P          42.9640   27.9040   40.5140 P.3      36   U    0.0000
    760 OP1        42.9990   26.9470   39.4000 O.co2    36   U    0.0000
    761 OP2        43.8760   27.6710   41.6610 O.co2    36   U    0.0000
    762 O5'        43.1570   29.3950   39.9530 O.3      36   U    0.0000
    763 C5'        42.4910   29.8690   38.7790 C.3      36   U    0.0000
    764 C4'        42.7740   31.3560   38.6170 C.3      36   U    0.0000
    765 O4'        42.4840   32.0740   39.8460 O.3      36   U    0.0000
    766 C3'        44.2270   31.6780   38.3640 C.3      36   U    0.0000
    767 O3'        44.4560   31.6590   36.9860 O.3      36   U    0.0000
    768 C2'        44.4140   33.0810   38.9290 C.3      36   U    0.0000
    769 O2'        44.1710   34.1230   38.0070 O.3      36   U    0.0000
    770 C1'        43.3840   33.1470   40.0380 C.3      36   U    0.0000
    771 N1         43.9940   33.0660   41.4110 N.am     36   U    0.0000
    772 C2         44.5100   34.2070   41.9920 C.2      36   U    0.0000
    773 O2         44.5110   35.2990   41.4670 O.2      36   U    0.0000
    774 N3         45.0350   34.0320   43.2420 N.am     36   U    0.0000
    775 C4         45.1010   32.8570   43.9570 C.2      36   U    0.0000
    776 O4         45.5900   32.8930   45.0750 O.2      36   U    0.0000
    777 C5         44.5790   31.6890   43.3030 C.2      36   U    0.0000
    778 C6         44.0580   31.8420   42.0790 C.2      36   U    0.0000
    779 P          45.8130   31.0290   36.3740 P.3      37   A    0.0000
    780 OP1        45.7130   31.0990   34.8920 O.co2    37   A    0.0000
    781 OP2        46.0950   29.7190   37.0180 O.co2    37   A    0.0000
    782 O5'        46.8840   32.0930   36.8880 O.3      37   A    0.0000
    783 C5'        46.9000   33.4170   36.4260 C.3      37   A    0.0000
    784 C4'        47.9150   34.1510   37.3010 C.3      37   A    0.0000
    785 O4'        47.6540   33.8830   38.7170 O.3      37   A    0.0000
    786 C3'        49.3590   33.7420   37.0560 C.3      37   A    0.0000
    787 O3'        50.1780   34.8660   37.2640 O.3      37   A    0.0000
    788 C2'        49.5670   32.6580   38.1150 C.3      37   A    0.0000
    789 O2'        50.9020   32.5380   38.5580 O.3      37   A    0.0000
    790 C1'        48.7310   33.1900   39.2920 C.3      37   A    0.0000
    791 N9         48.3150   32.1360   40.2330 N.ar     37   A    0.0000
    792 C8         47.8450   30.8700   39.9650 C.ar     37   A    0.0000
    793 N7         47.6080   30.1570   41.0460 N.ar     37   A    0.0000
    794 C5         47.9460   31.0160   42.0850 C.ar     37   A    0.0000
    795 C6         47.9270   30.9060   43.4930 C.ar     37   A    0.0000
    796 N6         47.5430   29.8250   44.1690 N.pl3    37   A    0.0000
    797 N1         48.3440   31.9630   44.2170 N.ar     37   A    0.0000
    798 C2         48.7580   33.0750   43.6080 C.ar     37   A    0.0000
    799 N3         48.8150   33.3050   42.3080 N.ar     37   A    0.0000
    800 C4         48.3900   32.2320   41.6000 C.ar     37   A    0.0000
    801 P          50.5790   35.8590   36.0750 P.3      38   C    0.0000
    802 OP1        49.9680   35.3490   34.8220 O.co2    38   C    0.0000
    803 OP2        52.0300   36.1650   36.2250 O.co2    38   C    0.0000
    804 O5'        49.7580   37.1820   36.4400 O.3      38   C    0.0000
    805 C5'        50.1050   38.3960   35.7950 C.3      38   C    0.0000
    806 C4'        49.7080   39.6000   36.6220 C.3      38   C    0.0000
    807 O4'        48.4420   39.4360   37.3380 O.3      38   C    0.0000
    808 C3'        50.7040   39.9140   37.7160 C.3      38   C    0.0000
    809 O3'        51.8020   40.5620   37.1250 O.3      38   C    0.0000
    810 C2'        49.8490   40.8080   38.6080 C.3      38   C    0.0000
    811 O2'        49.6090   42.0680   38.0270 O.3      38   C    0.0000
    812 C1'        48.5310   40.0210   38.6330 C.3      38   C    0.0000
    813 N1         48.5180   38.9710   39.7230 N.am     38   C    0.0000
    814 C2         48.7150   39.3490   41.0760 C.2      38   C    0.0000
    815 O2         48.8680   40.5380   41.3770 O.2      38   C    0.0000
    816 N3         48.7300   38.4050   42.0580 N.2      38   C    0.0000
    817 C4         48.5620   37.1280   41.7340 C.2      38   C    0.0000
    818 N4         48.5980   36.2480   42.7370 N.pl3    38   C    0.0000
    819 C5         48.3630   36.7130   40.3780 C.2      38   C    0.0000
    820 C6         48.3510   37.6480   39.4110 C.2      38   C    0.0000
    821 P          53.2760   40.0170   37.3520 P.3      39   A    0.0000
    822 OP1        54.2100   40.8230   36.5360 O.co2    39   A    0.0000
    823 OP2        53.2550   38.5290   37.2300 O.co2    39   A    0.0000
    824 O5'        53.5930   40.4540   38.8530 O.3      39   A    0.0000
    825 C5'        53.5700   41.8160   39.2040 C.3      39   A    0.0000
    826 C4'        53.5170   41.9360   40.7070 C.3      39   A    0.0000
    827 O4'        52.2620   41.3620   41.1770 O.3      39   A    0.0000
    828 C3'        54.5920   41.1510   41.4390 C.3      39   A    0.0000
    829 O3'        55.7920   41.9070   41.5190 O.3      39   A    0.0000
    830 C2'        53.9200   40.9720   42.7970 C.3      39   A    0.0000
    831 O2'        53.9910   42.1450   43.5590 O.3      39   A    0.0000
    832 C1'        52.4620   40.6880   42.4120 C.3      39   A    0.0000
    833 N9         52.2430   39.2400   42.2710 N.ar     39   A    0.0000
    834 C8         52.0700   38.5470   41.1060 C.ar     39   A    0.0000
    835 N7         51.9320   37.2600   41.2750 N.ar     39   A    0.0000
    836 C5         52.0330   37.1030   42.6410 C.ar     39   A    0.0000
    837 C6         51.9750   35.9620   43.4560 C.ar     39   A    0.0000
    838 N6         51.7800   34.7540   42.9230 N.pl3    39   A    0.0000
    839 N1         52.1120   36.1110   44.8090 N.ar     39   A    0.0000
    840 C2         52.2980   37.3500   45.3020 C.ar     39   A    0.0000
    841 N3         52.3680   38.5000   44.6100 N.ar     39   A    0.0000
    842 C4         52.2250   38.3050   43.2790 C.ar     39   A    0.0000
    843 P          57.2460   41.2290   41.4920 P.3      40   G    0.0000
    844 OP1        58.2600   42.2960   41.5870 O.co2    40   G    0.0000
    845 OP2        57.2980   40.2620   40.3800 O.co2    40   G    0.0000
    846 O5'        57.3240   40.3340   42.8190 O.3      40   G    0.0000
    847 C5'        57.1370   40.7770   44.1680 C.3      40   G    0.0000
    848 C4'        57.0560   39.5720   45.1040 C.3      40   G    0.0000
    849 O4'        55.7900   38.8700   44.9240 O.3      40   G    0.0000
    850 C3'        58.0760   38.4730   44.8480 C.3      40   G    0.0000
    851 O3'        59.3140   38.7850   45.4560 O.3      40   G    0.0000
    852 C2'        57.4080   37.2660   45.4910 C.3      40   G    0.0000
    853 O2'        57.4200   37.3260   46.8980 O.3      40   G    0.0000
    854 C1'        55.9880   37.4670   45.0010 C.3      40   G    0.0000
    855 N9         55.6720   36.7990   43.7220 N.ar     40   G    0.0000
    856 C8         55.4250   37.3440   42.4850 C.ar     40   G    0.0000
    857 N7         55.1580   36.4600   41.5600 N.ar     40   G    0.0000
    858 C5         55.2180   35.2490   42.2230 C.ar     40   G    0.0000
    859 C6         55.0130   33.9220   41.7690 C.2      40   G    0.0000
    860 O6         54.7110   33.5450   40.6320 O.2      40   G    0.0000
    861 N1         55.1840   32.9690   42.7780 N.am     40   G    0.0000
    862 C2         55.4910   33.2840   44.0690 C.2      40   G    0.0000
    863 N2         55.6160   32.2870   44.9380 N.pl3    40   G    0.0000
    864 N3         55.6650   34.5070   44.5120 N.2      40   G    0.0000
    865 C4         55.5240   35.4430   43.5440 C.ar     40   G    0.0000
    866 P          60.6800   38.1750   44.8840 P.3      41   U    0.0000
    867 OP1        61.7790   38.7960   45.6600 O.co2    41   U    0.0000
    868 OP2        60.6260   38.2410   43.4050 O.co2    41   U    0.0000
    869 O5'        60.6020   36.6170   45.2500 O.3      41   U    0.0000
    870 C5'        60.7100   36.1810   46.5830 C.3      41   U    0.0000
    871 C4'        60.6030   34.6700   46.5850 C.3      41   U    0.0000
    872 O4'        59.3160   34.2870   46.0520 O.3      41   U    0.0000
    873 C3'        61.5500   33.9200   45.6590 C.3      41   U    0.0000
    874 O3'        62.8520   33.8850   46.2120 O.3      41   U    0.0000
    875 C2'        60.8500   32.5590   45.6480 C.3      41   U    0.0000
    876 O2'        60.8300   31.8830   46.8940 O.3      41   U    0.0000
    877 C1'        59.4390   33.0530   45.3770 C.3      41   U    0.0000
    878 N1         59.0630   33.2220   43.9380 N.am     41   U    0.0000
    879 C2         58.8490   32.0970   43.1720 C.2      41   U    0.0000
    880 O2         58.9840   30.9570   43.5990 O.2      41   U    0.0000
    881 N3         58.5010   32.3560   41.8620 N.am     41   U    0.0000
    882 C4         58.3240   33.5850   41.2510 C.2      41   U    0.0000
    883 O4         57.9870   33.6410   40.0670 O.2      41   U    0.0000
    884 C5         58.5520   34.7120   42.1100 C.2      41   U    0.0000
    885 C6         58.8990   34.4850   43.3870 C.2      41   U    0.0000
    886 P          64.1820   33.8390   45.3170 P.3      42   G    0.0000
    887 OP1        65.2790   34.0390   46.3010 O.co2    42   G    0.0000
    888 OP2        64.0300   34.6820   44.1030 O.co2    42   G    0.0000
    889 O5'        64.2910   32.3490   44.7540 O.3      42   G    0.0000
    890 C5'        64.5430   31.2370   45.5930 C.3      42   G    0.0000
    891 C4'        64.2030   29.9880   44.8080 C.3      42   G    0.0000
    892 O4'        62.8560   30.1420   44.3230 O.3      42   G    0.0000
    893 C3'        64.9490   29.8240   43.4960 C.3      42   G    0.0000
    894 O3'        66.2560   29.3620   43.7080 O.3      42   G    0.0000
    895 C2'        64.0510   28.8090   42.7940 C.3      42   G    0.0000
    896 O2'        64.0440   27.5080   43.3400 O.3      42   G    0.0000
    897 C1'        62.7000   29.4320   43.1000 C.3      42   G    0.0000
    898 N9         62.1540   30.2760   42.0240 N.ar     42   G    0.0000
    899 C8         61.9800   31.6430   41.9920 C.ar     42   G    0.0000
    900 N7         61.4520   32.0950   40.8820 N.ar     42   G    0.0000
    901 C5         61.2630   30.9510   40.1180 C.ar     42   G    0.0000
    902 C6         60.7240   30.7930   38.8120 C.2      42   G    0.0000
    903 O6         60.2870   31.6670   38.0330 O.2      42   G    0.0000
    904 N1         60.7110   29.4450   38.4270 N.am     42   G    0.0000
    905 C2         61.1660   28.3940   39.1980 C.2      42   G    0.0000
    906 N2         61.0850   27.1630   38.6700 N.pl3    42   G    0.0000
    907 N3         61.6640   28.5350   40.4180 N.2      42   G    0.0000
    908 C4         61.6830   29.8300   40.8120 C.ar     42   G    0.0000
    909 P          67.5010   29.9800   42.9130 P.3      43   A    0.0000
    910 OP1        68.6410   29.7410   43.8210 O.co2    43   A    0.0000
    911 OP2        67.2490   31.3380   42.3960 O.co2    43   A    0.0000
    912 O5'        67.6590   29.0340   41.6340 O.3      43   A    0.0000
    913 C5'        67.5710   27.6000   41.7410 C.3      43   A    0.0000
    914 C4'        66.9890   26.9840   40.4720 C.3      43   A    0.0000
    915 O4'        65.6030   27.3910   40.3330 O.3      43   A    0.0000
    916 C3'        67.6380   27.4600   39.1700 C.3      43   A    0.0000
    917 O3'        68.8550   26.8130   38.8450 O.3      43   A    0.0000
    918 C2'        66.5390   27.2210   38.1360 C.3      43   A    0.0000
    919 O2'        66.4600   25.9080   37.6050 O.3      43   A    0.0000
    920 C1'        65.2960   27.5460   38.9560 C.3      43   A    0.0000
    921 N9         64.8270   28.8890   38.6260 N.ar     43   A    0.0000
    922 C8         64.9600   30.0640   39.3150 C.ar     43   A    0.0000
    923 N7         64.4060   31.1080   38.7190 N.ar     43   A    0.0000
    924 C5         63.8800   30.5800   37.5490 C.ar     43   A    0.0000
    925 C6         63.1670   31.1400   36.4610 C.ar     43   A    0.0000
    926 N6         62.8310   32.4270   36.3650 N.pl3    43   A    0.0000
    927 N1         62.8040   30.3140   35.4480 N.ar     43   A    0.0000
    928 C2         63.1200   29.0080   35.5130 C.ar     43   A    0.0000
    929 N3         63.7820   28.3600   36.4770 N.ar     43   A    0.0000
    930 C4         64.1400   29.2120   37.4720 C.ar     43   A    0.0000
    931 P          69.9480   27.6010   37.9600 P.3      44   A    0.0000
    932 OP1        71.1860   26.7830   37.9860 O.co2    44   A    0.0000
    933 OP2        70.0520   29.0350   38.3270 O.co2    44   A    0.0000
    934 O5'        69.2760   27.5490   36.5140 O.3      44   A    0.0000
    935 C5'        69.6300   26.5690   35.5520 C.3      44   A    0.0000
    936 C4'        68.6760   26.6380   34.3800 C.3      44   A    0.0000
    937 O4'        67.3510   27.0440   34.8310 O.3      44   A    0.0000
    938 C3'        69.0220   27.6880   33.3430 C.3      44   A    0.0000
    939 O3'        70.0620   27.2150   32.5270 O.3      44   A    0.0000
    940 C2'        67.6790   27.7330   32.6300 C.3      44   A    0.0000
    941 O2'        67.4380   26.5480   31.9080 O.3      44   A    0.0000
    942 C1'        66.7280   27.8390   33.8280 C.3      44   A    0.0000
    943 N9         66.5560   29.2270   34.2890 N.ar     44   A    0.0000
    944 C8         67.1100   29.8290   35.3830 C.ar     44   A    0.0000
    945 N7         66.7940   31.0900   35.5430 N.ar     44   A    0.0000
    946 C5         65.9740   31.3490   34.4680 C.ar     44   A    0.0000
    947 C6         65.2980   32.5170   34.0540 C.ar     44   A    0.0000
    948 N6         65.3440   33.6840   34.6910 N.pl3    44   A    0.0000
    949 N1         64.5520   32.4400   32.9410 N.ar     44   A    0.0000
    950 C2         64.4840   31.2620   32.2910 C.ar     44   A    0.0000
    951 N3         65.0660   30.0930   32.5800 N.ar     44   A    0.0000
    952 C4         65.8130   30.2130   33.6910 C.ar     44   A    0.0000
    953 P          71.3400   28.1180   32.1460 P.3      45   U    0.0000
    954 OP1        72.3380   27.2250   31.5010 O.co2    45   U    0.0000
    955 OP2        71.7520   28.9820   33.2770 O.co2    45   U    0.0000
    956 O5'        70.7020   29.0580   31.0240 O.3      45   U    0.0000
    957 C5'        70.0730   28.4560   29.8890 C.3      45   U    0.0000
    958 C4'        69.1300   29.4330   29.2210 C.3      45   U    0.0000
    959 O4'        68.0840   29.8240   30.1440 O.3      45   U    0.0000
    960 C3'        69.7640   30.7570   28.8180 C.3      45   U    0.0000
    961 O3'        70.5410   30.5790   27.6480 O.3      45   U    0.0000
    962 C2'        68.5010   31.6020   28.6530 C.3      45   U    0.0000
    963 O2'        67.7280   31.2750   27.5150 O.3      45   U    0.0000
    964 C1'        67.7270   31.1730   29.9040 C.3      45   U    0.0000
    965 N1         67.9640   31.9920   31.1640 N.am     45   U    0.0000
    966 C2         67.3190   33.2200   31.3070 C.2      45   U    0.0000
    967 O2         66.5660   33.7040   30.4740 O.2      45   U    0.0000
    968 N3         67.5960   33.8810   32.4800 N.am     45   U    0.0000
    969 C4         68.4210   33.4510   33.4990 C.2      45   U    0.0000
    970 O4         68.5500   34.1680   34.4820 O.2      45   U    0.0000
    971 C5         69.0640   32.1770   33.2970 C.2      45   U    0.0000
    972 C6         68.8120   31.5140   32.1600 C.2      45   U    0.0000
    973 P          71.6400   31.6510   27.2090 P.3      46   U    0.0000
    974 OP1        72.3410   31.1360   26.0070 O.co2    46   U    0.0000
    975 OP2        72.4220   32.1160   28.3810 O.co2    46   U    0.0000
    976 O5'        70.6660   32.8470   26.7730 O.3      46   U    0.0000
    977 C5'        70.3790   33.2060   25.4010 C.3      46   U    0.0000
    978 C4'        69.7110   34.5800   25.3490 C.3      46   U    0.0000
    979 O4'        68.6840   34.6490   26.3960 O.3      46   U    0.0000
    980 C3'        70.6120   35.7950   25.6340 C.3      46   U    0.0000
    981 O3'        71.5650   36.2300   24.5770 O.3      46   U    0.0000
    982 C2'        69.5270   36.8090   26.0390 C.3      46   U    0.0000
    983 O2'        68.6630   37.2400   25.0060 O.3      46   U    0.0000
    984 C1'        68.6430   35.9630   26.9450 C.3      46   U    0.0000
    985 N1         68.9610   36.0490   28.4430 N.am     46   U    0.0000
    986 C2         68.4160   37.1080   29.1770 C.2      46   U    0.0000
    987 O2         67.7040   37.9800   28.6950 O.2      46   U    0.0000
    988 N3         68.7130   37.1410   30.5230 N.am     46   U    0.0000
    989 C4         69.4890   36.2420   31.2090 C.2      46   U    0.0000
    990 O4         69.6580   36.4240   32.4040 O.2      46   U    0.0000
    991 C5         70.0280   35.1640   30.4020 C.2      46   U    0.0000
    992 C6         69.7550   35.1080   29.0840 C.2      46   U    0.0000
    993 MG         42.6640   34.3950   50.2490 Mg       47  MG    0.0000
    994 MG         47.8650   33.9190   48.0900 Mg       48  MG    0.0000
    995 O          43.1030   31.4470   47.9240 O.3      49 HOH    0.0000
    996 O          41.6190   34.8160   52.0220 O.3      50 HOH    0.0000
    997 O          43.5100   33.9860   48.3530 O.3      51 HOH    0.0000
    998 O          41.8790   32.4440   50.2880 O.3      52 HOH    0.0000
    999 O          43.3950   36.3290   50.2790 O.3      53 HOH    0.0000
   1000 O          40.9690   35.1170   49.2540 O.3      54 HOH    0.0000
   1001 O          48.0240   35.5500   49.3780 O.3      55 HOH    0.0000
   1002 O          47.8190   32.2140   46.8650 O.3      56 HOH    0.0000
   1003 O          46.3090   34.8590   47.0930 O.3      57 HOH    0.0000
   1004 O          49.5130   33.0430   49.0270 O.3      58 HOH    0.0000
   1005 O          49.0420   34.8750   46.6780 O.3      59 HOH    0.0000
@<TRIPOS>BOND
     1    1    2 1
     2    1    3 1
     3    1    4 1
     4    4    5 1
     5    5    6 1
     6    6    8 1
     7    6    7 1
     8    7   12 1
     9    8   10 1
    10    8    9 1
    11   10   12 1
    12   10   11 1
    13   12   13 1
    14   13   23 ar
    15   13   14 ar
    16   14   15 ar
    17   15   16 ar
    18   16   23 ar
    19   16   17 1
    20   17   18 2
    21   17   19 am
    22   19   20 1
    23   20   21 2
    24   20   22 2
    25   22   23 1
    26   24   25 1
    27   24   27 1
    28   24   26 1
    29   27   28 1
    30   28   29 1
    31   29   30 1
    32   29   31 1
    33   30   35 1
    34   31   32 1
    35   31   33 1
    36   33   34 1
    37   33   35 1
    38   35   36 1
    39   36   45 ar
    40   36   37 ar
    41   37   38 ar
    42   38   39 ar
    43   39   45 ar
    44   39   40 ar
    45   40   41 1
    46   40   42 ar
    47   42   43 ar
    48   43   44 ar
    49   44   45 ar
    50   24    9 1
    51   46   48 1
    52   46   49 1
    53   46   47 1
    54   49   50 1
    55   50   51 1
    56   51   53 1
    57   51   52 1
    58   52   57 1
    59   53   55 1
    60   53   54 1
    61   55   56 1
    62   55   57 1
    63   57   58 1
    64   58   59 ar
    65   58   68 ar
    66   59   60 ar
    67   60   61 ar
    68   61   62 1
    69   61   68 ar
    70   62   63 2
    71   62   64 am
    72   64   65 1
    73   65   66 2
    74   65   67 2
    75   67   68 1
    76   32   46 1
    77   69   70 1
    78   69   71 1
    79   69   72 1
    80   72   73 1
    81   73   74 1
    82   74   76 1
    83   74   75 1
    84   75   80 1
    85   76   78 1
    86   76   77 1
    87   78   79 1
    88   78   80 1
    89   80   81 1
    90   81   82 am
    91   81   88 1
    92   82   83 2
    93   82   84 am
    94   84   85 am
    95   85   87 1
    96   85   86 2
    97   87   88 2
    98   54   69 1
    99   89   90 1
   100   89   91 1
   101   89   92 1
   102   92   93 1
   103   93   94 1
   104   94   96 1
   105   94   95 1
   106   95  100 1
   107   96   98 1
   108   96   97 1
   109   98   99 1
   110   98  100 1
   111  100  101 1
   112  101  102 am
   113  101  108 1
   114  102  103 2
   115  102  104 am
   116  104  105 am
   117  105  107 1
   118  105  106 2
   119  107  108 2
   120   77   89 1
   121  109  110 1
   122  109  111 1
   123  109  112 1
   124  112  113 1
   125  113  114 1
   126  114  116 1
   127  114  115 1
   128  115  120 1
   129  116  118 1
   130  116  117 1
   131  118  119 1
   132  118  120 1
   133  120  121 1
   134  121  122 am
   135  121  128 1
   136  122  124 1
   137  122  123 2
   138  124  125 2
   139  125  127 2
   140  125  126 2
   141  127  128 2
   142   97  109 1
   143  129  130 1
   144  129  132 1
   145  129  131 1
   146  132  133 1
   147  133  134 1
   148  134  135 1
   149  134  136 1
   150  135  140 1
   151  136  137 1
   152  136  138 1
   153  138  139 1
   154  138  140 1
   155  140  141 1
   156  141  150 ar
   157  141  142 ar
   158  142  143 ar
   159  143  144 ar
   160  144  150 ar
   161  144  145 ar
   162  145  146 1
   163  145  147 ar
   164  147  148 ar
   165  148  149 ar
   166  149  150 ar
   167  117  129 1
   168  151  152 1
   169  151  153 1
   170  151  154 1
   171  154  155 1
   172  155  156 1
   173  156  158 1
   174  156  157 1
   175  157  162 1
   176  158  160 1
   177  158  159 1
   178  160  161 1
   179  160  162 1
   180  162  163 1
   181  163  164 am
   182  163  170 1
   183  164  166 1
   184  164  165 2
   185  166  167 2
   186  167  169 2
   187  167  168 2
   188  169  170 2
   189  137  151 1
   190  171  172 1
   191  171  173 1
   192  171  174 1
   193  174  175 1
   194  175  176 1
   195  176  178 1
   196  176  177 1
   197  177  182 1
   198  178  180 1
   199  178  179 1
   200  180  181 1
   201  180  182 1
   202  182  183 1
   203  183  184 am
   204  183  190 1
   205  184  186 1
   206  184  185 2
   207  186  187 2
   208  187  189 2
   209  187  188 2
   210  189  190 2
   211  159  171 1
   212  191  193 1
   213  191  194 1
   214  191  192 1
   215  194  195 1
   216  195  196 1
   217  196  198 1
   218  196  197 1
   219  197  202 1
   220  198  200 1
   221  198  199 1
   222  200  201 1
   223  200  202 1
   224  202  203 1
   225  203  204 ar
   226  203  213 ar
   227  204  205 ar
   228  205  206 ar
   229  206  207 1
   230  206  213 ar
   231  207  208 2
   232  207  209 am
   233  209  210 1
   234  210  211 2
   235  210  212 2
   236  212  213 1
   237  179  191 1
   238  214  215 1
   239  214  217 1
   240  214  216 1
   241  217  218 1
   242  218  219 1
   243  219  220 1
   244  219  221 1
   245  220  225 1
   246  221  222 1
   247  221  223 1
   248  223  224 1
   249  223  225 1
   250  225  226 1
   251  226  235 ar
   252  226  227 ar
   253  227  228 ar
   254  228  229 ar
   255  229  235 ar
   256  229  230 ar
   257  230  231 1
   258  230  232 ar
   259  232  233 ar
   260  233  234 ar
   261  234  235 ar
   262  199  214 1
   263  236  238 1
   264  236  239 1
   265  236  237 1
   266  239  240 1
   267  240  241 1
   268  241  243 1
   269  241  242 1
   270  242  247 1
   271  243  245 1
   272  243  244 1
   273  245  246 1
   274  245  247 1
   275  247  248 1
   276  248  249 ar
   277  248  258 ar
   278  249  250 ar
   279  250  251 ar
   280  251  252 1
   281  251  258 ar
   282  252  253 2
   283  252  254 am
   284  254  255 1
   285  255  256 2
   286  255  257 2
   287  257  258 1
   288  222  236 1
   289  259  261 1
   290  259  262 1
   291  259  260 1
   292  262  263 1
   293  263  264 1
   294  264  266 1
   295  264  265 1
   296  265  270 1
   297  266  268 1
   298  266  267 1
   299  268  269 1
   300  268  270 1
   301  270  271 1
   302  271  272 ar
   303  271  281 ar
   304  272  273 ar
   305  273  274 ar
   306  274  275 1
   307  274  281 ar
   308  275  276 2
   309  275  277 am
   310  277  278 1
   311  278  279 2
   312  278  280 2
   313  280  281 1
   314  244  259 1
   315  282  283 1
   316  282  284 1
   317  282  285 1
   318  285  286 1
   319  286  287 1
   320  287  289 1
   321  287  288 1
   322  288  293 1
   323  289  291 1
   324  289  290 1
   325  291  292 1
   326  291  293 1
   327  293  294 1
   328  294  295 am
   329  294  301 1
   330  295  297 1
   331  295  296 2
   332  297  298 2
   333  298  300 2
   334  298  299 2
   335  300  301 2
   336  267  282 1
   337  302  303 1
   338  302  304 1
   339  302  305 1
   340  305  306 1
   341  306  307 1
   342  307  309 1
   343  307  308 1
   344  308  313 1
   345  309  311 1
   346  309  310 1
   347  311  312 1
   348  311  313 1
   349  313  314 1
   350  314  315 am
   351  314  321 1
   352  315  317 1
   353  315  316 2
   354  317  318 2
   355  318  320 2
   356  318  319 2
   357  320  321 2
   358  290  302 1
   359  322  323 1
   360  322  325 1
   361  322  324 1
   362  325  326 1
   363  326  327 1
   364  327  328 1
   365  327  329 1
   366  328  333 1
   367  329  330 1
   368  329  331 1
   369  331  332 1
   370  331  333 1
   371  333  334 1
   372  334  343 ar
   373  334  335 ar
   374  335  336 ar
   375  336  337 ar
   376  337  343 ar
   377  337  338 ar
   378  338  339 1
   379  338  340 ar
   380  340  341 ar
   381  341  342 ar
   382  342  343 ar
   383  310  322 1
   384  344  345 1
   385  344  346 1
   386  344  347 1
   387  347  348 1
   388  348  349 1
   389  349  351 1
   390  349  350 1
   391  350  355 1
   392  351  353 1
   393  351  352 1
   394  353  354 1
   395  353  355 1
   396  355  356 1
   397  356  357 am
   398  356  363 1
   399  357  359 1
   400  357  358 2
   401  359  360 2
   402  360  362 2
   403  360  361 2
   404  362  363 2
   405  330  344 1
   406  364  366 1
   407  364  367 1
   408  364  365 1
   409  367  368 1
   410  368  369 1
   411  369  371 1
   412  369  370 1
   413  370  375 1
   414  371  373 1
   415  371  372 1
   416  373  374 1
   417  373  375 1
   418  375  376 1
   419  376  377 ar
   420  376  386 ar
   421  377  378 ar
   422  378  379 ar
   423  379  380 1
   424  379  386 ar
   425  380  381 2
   426  380  382 am
   427  382  383 1
   428  383  384 2
   429  383  385 2
   430  385  386 1
   431  352  364 1
   432  387  388 1
   433  387  389 1
   434  387  390 1
   435  390  391 1
   436  391  392 1
   437  392  394 1
   438  392  393 1
   439  393  398 1
   440  394  396 1
   441  394  395 1
   442  396  397 1
   443  396  398 1
   444  398  399 1
   445  399  400 am
   446  399  406 1
   447  400  402 1
   448  400  401 2
   449  402  403 2
   450  403  405 2
   451  403  404 2
   452  405  406 2
   453  372  387 1
   454  407  409 1
   455  407  410 1
   456  407  408 1
   457  410  411 1
   458  411  412 1
   459  412  414 1
   460  412  413 1
   461  413  418 1
   462  414  416 1
   463  414  415 1
   464  416  417 1
   465  416  418 1
   466  418  419 1
   467  419  420 ar
   468  419  429 ar
   469  420  421 ar
   470  421  422 ar
   471  422  423 1
   472  422  429 ar
   473  423  424 2
   474  423  425 am
   475  425  426 1
   476  426  427 2
   477  426  428 2
   478  428  429 1
   479  395  407 1
   480  430  432 1
   481  430  433 1
   482  430  431 1
   483  433  434 1
   484  434  435 1
   485  435  437 1
   486  435  436 1
   487  436  441 1
   488  437  439 1
   489  437  438 1
   490  439  440 1
   491  439  441 1
   492  441  442 1
   493  442  443 ar
   494  442  452 ar
   495  443  444 ar
   496  444  445 ar
   497  445  446 1
   498  445  452 ar
   499  446  447 2
   500  446  448 am
   501  448  449 1
   502  449  450 2
   503  449  451 2
   504  451  452 1
   505  415  430 1
   506  453  454 1
   507  453  456 1
   508  453  455 1
   509  456  457 1
   510  457  458 1
   511  458  459 1
   512  458  460 1
   513  459  464 1
   514  460  461 1
   515  460  462 1
   516  462  463 1
   517  462  464 1
   518  464  465 1
   519  465  474 ar
   520  465  466 ar
   521  466  467 ar
   522  467  468 ar
   523  468  474 ar
   524  468  469 ar
   525  469  470 1
   526  469  471 ar
   527  471  472 ar
   528  472  473 ar
   529  473  474 ar
   530  438  453 1
   531  475  477 1
   532  475  478 1
   533  475  476 1
   534  478  479 1
   535  479  480 1
   536  480  482 1
   537  480  481 1
   538  481  486 1
   539  482  484 1
   540  482  483 1
   541  484  485 1
   542  484  486 1
   543  486  487 1
   544  487  488 ar
   545  487  497 ar
   546  488  489 ar
   547  489  490 ar
   548  490  491 1
   549  490  497 ar
   550  491  492 2
   551  491  493 am
   552  493  494 1
   553  494  495 2
   554  494  496 2
   555  496  497 1
   556  461  475 1
   557  498  499 1
   558  498  500 1
   559  498  501 1
   560  501  502 1
   561  502  503 1
   562  503  505 1
   563  503  504 1
   564  504  509 1
   565  505  507 1
   566  505  506 1
   567  507  508 1
   568  507  509 1
   569  509  510 1
   570  510  511 am
   571  510  517 1
   572  511  512 2
   573  511  513 am
   574  513  514 am
   575  514  516 1
   576  514  515 2
   577  516  517 2
   578  483  498 1
   579  518  519 1
   580  518  521 1
   581  518  520 1
   582  521  522 1
   583  522  523 1
   584  523  524 1
   585  523  525 1
   586  524  529 1
   587  525  526 1
   588  525  527 1
   589  527  528 1
   590  527  529 1
   591  529  530 1
   592  530  539 ar
   593  530  531 ar
   594  531  532 ar
   595  532  533 ar
   596  533  539 ar
   597  533  534 ar
   598  534  535 1
   599  534  536 ar
   600  536  537 ar
   601  537  538 ar
   602  538  539 ar
   603  506  518 1
   604  540  541 1
   605  540  542 1
   606  540  543 1
   607  543  544 1
   608  544  545 1
   609  545  547 1
   610  545  546 1
   611  546  551 1
   612  547  549 1
   613  547  548 1
   614  549  550 1
   615  549  551 1
   616  551  552 1
   617  552  553 am
   618  552  559 1
   619  553  555 1
   620  553  554 2
   621  555  556 2
   622  556  558 2
   623  556  557 2
   624  558  559 2
   625  526  540 1
   626  560  562 1
   627  560  563 1
   628  560  561 1
   629  563  564 1
   630  564  565 1
   631  565  567 1
   632  565  566 1
   633  566  571 1
   634  567  569 1
   635  567  568 1
   636  569  570 1
   637  569  571 1
   638  571  572 1
   639  572  573 ar
   640  572  582 ar
   641  573  574 ar
   642  574  575 ar
   643  575  576 1
   644  575  582 ar
   645  576  577 2
   646  576  578 am
   647  578  579 1
   648  579  580 2
   649  579  581 2
   650  581  582 1
   651  548  560 1
   652  583  584 1
   653  583  586 1
   654  583  585 1
   655  586  587 1
   656  587  588 1
   657  588  589 1
   658  588  590 1
   659  589  594 1
   660  590  591 1
   661  590  592 1
   662  592  593 1
   663  592  594 1
   664  594  595 1
   665  595  604 ar
   666  595  596 ar
   667  596  597 ar
   668  597  598 ar
   669  598  604 ar
   670  598  599 ar
   671  599  600 1
   672  599  601 ar
   673  601  602 ar
   674  602  603 ar
   675  603  604 ar
   676  568  583 1
   677  605  606 1
   678  605  607 1
   679  605  608 1
   680  608  609 1
   681  609  610 1
   682  610  612 1
   683  610  611 1
   684  611  616 1
   685  612  614 1
   686  612  613 1
   687  614  615 1
   688  614  616 1
   689  616  617 1
   690  617  618 am
   691  617  624 1
   692  618  619 2
   693  618  620 am
   694  620  621 am
   695  621  623 1
   696  621  622 2
   697  623  624 2
   698  591  605 1
   699  625  626 1
   700  625  627 1
   701  625  628 1
   702  628  629 1
   703  629  630 1
   704  630  632 1
   705  630  631 1
   706  631  636 1
   707  632  634 1
   708  632  633 1
   709  634  635 1
   710  634  636 1
   711  636  637 1
   712  637  638 am
   713  637  644 1
   714  638  640 1
   715  638  639 2
   716  640  641 2
   717  641  643 2
   718  641  642 2
   719  643  644 2
   720  613  625 1
   721  645  647 1
   722  645  648 1
   723  645  646 1
   724  648  649 1
   725  649  650 1
   726  650  652 1
   727  650  651 1
   728  651  656 1
   729  652  654 1
   730  652  653 1
   731  654  655 1
   732  654  656 1
   733  656  657 1
   734  657  658 ar
   735  657  667 ar
   736  658  659 ar
   737  659  660 ar
   738  660  661 1
   739  660  667 ar
   740  661  662 2
   741  661  663 am
   742  663  664 1
   743  664  665 2
   744  664  666 2
   745  666  667 1
   746  633  645 1
   747  668  669 1
   748  668  671 1
   749  668  670 1
   750  671  672 1
   751  672  673 1
   752  673  674 1
   753  673  675 1
   754  674  679 1
   755  675  676 1
   756  675  677 1
   757  677  678 1
   758  677  679 1
   759  679  680 1
   760  680  689 ar
   761  680  681 ar
   762  681  682 ar
   763  682  683 ar
   764  683  689 ar
   765  683  684 ar
   766  684  685 1
   767  684  686 ar
   768  686  687 ar
   769  687  688 ar
   770  688  689 ar
   771  653  668 1
   772  690  692 1
   773  690  693 1
   774  690  691 1
   775  693  694 1
   776  694  695 1
   777  695  697 1
   778  695  696 1
   779  696  701 1
   780  697  699 1
   781  697  698 1
   782  699  700 1
   783  699  701 1
   784  701  702 1
   785  702  703 ar
   786  702  712 ar
   787  703  704 ar
   788  704  705 ar
   789  705  706 1
   790  705  712 ar
   791  706  707 2
   792  706  708 am
   793  708  709 1
   794  709  710 2
   795  709  711 2
   796  711  712 1
   797  676  690 1
   798  713  715 1
   799  713  716 1
   800  713  714 1
   801  716  717 1
   802  717  718 1
   803  718  720 1
   804  718  719 1
   805  719  724 1
   806  720  722 1
   807  720  721 1
   808  722  723 1
   809  722  724 1
   810  724  725 1
   811  725  726 ar
   812  725  735 ar
   813  726  727 ar
   814  727  728 ar
   815  728  729 1
   816  728  735 ar
   817  729  730 2
   818  729  731 am
   819  731  732 1
   820  732  733 2
   821  732  734 2
   822  734  735 1
   823  698  713 1
   824  736  738 1
   825  736  739 1
   826  736  737 1
   827  739  740 1
   828  740  741 1
   829  741  743 1
   830  741  742 1
   831  742  747 1
   832  743  745 1
   833  743  744 1
   834  745  746 1
   835  745  747 1
   836  747  748 1
   837  748  749 ar
   838  748  758 ar
   839  749  750 ar
   840  750  751 ar
   841  751  752 1
   842  751  758 ar
   843  752  753 2
   844  752  754 am
   845  754  755 1
   846  755  756 2
   847  755  757 2
   848  757  758 1
   849  721  736 1
   850  759  760 1
   851  759  761 1
   852  759  762 1
   853  762  763 1
   854  763  764 1
   855  764  766 1
   856  764  765 1
   857  765  770 1
   858  766  768 1
   859  766  767 1
   860  768  769 1
   861  768  770 1
   862  770  771 1
   863  771  772 am
   864  771  778 1
   865  772  773 2
   866  772  774 am
   867  774  775 am
   868  775  777 1
   869  775  776 2
   870  777  778 2
   871  744  759 1
   872  779  780 1
   873  779  782 1
   874  779  781 1
   875  782  783 1
   876  783  784 1
   877  784  785 1
   878  784  786 1
   879  785  790 1
   880  786  787 1
   881  786  788 1
   882  788  789 1
   883  788  790 1
   884  790  791 1
   885  791  800 ar
   886  791  792 ar
   887  792  793 ar
   888  793  794 ar
   889  794  800 ar
   890  794  795 ar
   891  795  796 1
   892  795  797 ar
   893  797  798 ar
   894  798  799 ar
   895  799  800 ar
   896  767  779 1
   897  801  802 1
   898  801  803 1
   899  801  804 1
   900  804  805 1
   901  805  806 1
   902  806  808 1
   903  806  807 1
   904  807  812 1
   905  808  810 1
   906  808  809 1
   907  810  811 1
   908  810  812 1
   909  812  813 1
   910  813  814 am
   911  813  820 1
   912  814  816 1
   913  814  815 2
   914  816  817 2
   915  817  819 2
   916  817  818 2
   917  819  820 2
   918  787  801 1
   919  821  822 1
   920  821  824 1
   921  821  823 1
   922  824  825 1
   923  825  826 1
   924  826  827 1
   925  826  828 1
   926  827  832 1
   927  828  829 1
   928  828  830 1
   929  830  831 1
   930  830  832 1
   931  832  833 1
   932  833  842 ar
   933  833  834 ar
   934  834  835 ar
   935  835  836 ar
   936  836  842 ar
   937  836  837 ar
   938  837  838 1
   939  837  839 ar
   940  839  840 ar
   941  840  841 ar
   942  841  842 ar
   943  809  821 1
   944  843  845 1
   945  843  846 1
   946  843  844 1
   947  846  847 1
   948  847  848 1
   949  848  850 1
   950  848  849 1
   951  849  854 1
   952  850  852 1
   953  850  851 1
   954  852  853 1
   955  852  854 1
   956  854  855 1
   957  855  856 ar
   958  855  865 ar
   959  856  857 ar
   960  857  858 ar
   961  858  859 1
   962  858  865 ar
   963  859  860 2
   964  859  861 am
   965  861  862 1
   966  862  863 2
   967  862  864 2
   968  864  865 1
   969  829  843 1
   970  866  867 1
   971  866  868 1
   972  866  869 1
   973  869  870 1
   974  870  871 1
   975  871  873 1
   976  871  872 1
   977  872  877 1
   978  873  875 1
   979  873  874 1
   980  875  876 1
   981  875  877 1
   982  877  878 1
   983  878  879 am
   984  878  885 1
   985  879  880 2
   986  879  881 am
   987  881  882 am
   988  882  884 1
   989  882  883 2
   990  884  885 2
   991  851  866 1
   992  886  888 1
   993  886  889 1
   994  886  887 1
   995  889  890 1
   996  890  891 1
   997  891  893 1
   998  891  892 1
   999  892  897 1
  1000  893  895 1
  1001  893  894 1
  1002  895  896 1
  1003  895  897 1
  1004  897  898 1
  1005  898  899 ar
  1006  898  908 ar
  1007  899  900 ar
  1008  900  901 ar
  1009  901  902 1
  1010  901  908 ar
  1011  902  903 2
  1012  902  904 am
  1013  904  905 1
  1014  905  906 2
  1015  905  907 2
  1016  907  908 1
  1017  874  886 1
  1018  909  910 1
  1019  909  912 1
  1020  909  911 1
  1021  912  913 1
  1022  913  914 1
  1023  914  915 1
  1024  914  916 1
  1025  915  920 1
  1026  916  917 1
  1027  916  918 1
  1028  918  919 1
  1029  918  920 1
  1030  920  921 1
  1031  921  930 ar
  1032  921  922 ar
  1033  922  923 ar
  1034  923  924 ar
  1035  924  930 ar
  1036  924  925 ar
  1037  925  926 1
  1038  925  927 ar
  1039  927  928 ar
  1040  928  929 ar
  1041  929  930 ar
  1042  894  909 1
  1043  931  932 1
  1044  931  934 1
  1045  931  933 1
  1046  934  935 1
  1047  935  936 1
  1048  936  937 1
  1049  936  938 1
  1050  937  942 1
  1051  938  939 1
  1052  938  940 1
  1053  940  941 1
  1054  940  942 1
  1055  942  943 1
  1056  943  952 ar
  1057  943  944 ar
  1058  944  945 ar
  1059  945  946 ar
  1060  946  952 ar
  1061  946  947 ar
  1062  947  948 1
  1063  947  949 ar
  1064  949  950 ar
  1065  950  951 ar
  1066  951  952 ar
  1067  917  931 1
  1068  953  954 1
  1069  953  955 1
  1070  953  956 1
  1071  956  957 1
  1072  957  958 1
  1073  958  960 1
  1074  958  959 1
  1075  959  964 1
  1076  960  962 1
  1077  960  961 1
  1078  962  963 1
  1079  962  964 1
  1080  964  965 1
  1081  965  966 am
  1082  965  972 1
  1083  966  967 2
  1084  966  968 am
  1085  968  969 am
  1086  969  971 1
  1087  969  970 2
  1088  971  972 2
  1089  939  953 1
  1090  976  977 1
  1091  977  978 1
  1092  978  980 1
  1093  978  979 1
  1094  979  984 1
  1095  980  982 1
  1096  980  981 1
  1097  982  983 1
  1098  982  984 1
  1099  984  985 1
  1100  985  992 1
  1101  985  986 am
  1102  986  988 am
  1103  986  987 2
  1104  988  989 am
  1105  989  991 1
  1106  989  990 2
  1107  991  992 2
  1108  973  974 1
  1109  973  975 1
  1110  973  976 1
  1111  961  973 1
@<TRIPOS>SUBSTRUCTURE
     1   G     6 RESIDUE           4 A       G     1 ROOT
     2   A    29 RESIDUE           4 A       A     2
     3   G    51 RESIDUE           4 A       G     2
     4   U    74 RESIDUE           4 A       U     2
     5   U    94 RESIDUE           4 A       U     2
     6   C   114 RESIDUE           4 A       C     2
     7   A   134 RESIDUE           4 A       A     2
     8   C   156 RESIDUE           4 A       C     2
     9   C   176 RESIDUE           4 A       C     2
    10   G   196 RESIDUE           4 A       G     2
    11   A   219 RESIDUE           4 A       A     2
    12   G   241 RESIDUE           4 A       G     2
    13   G   264 RESIDUE           4 A       G     2
    14   C   287 RESIDUE           4 A       C     2
    15   C   307 RESIDUE           4 A       C     2
    16   A   327 RESIDUE           4 A       A     2
    17   C   349 RESIDUE           4 A       C     2
    18   G   369 RESIDUE           4 A       G     2
    19   C   392 RESIDUE           4 A       C     2
    20   G   412 RESIDUE           4 A       G     2
    21   G   435 RESIDUE           4 A       G     2
    22   A   458 RESIDUE           4 A       A     2
    23   G   480 RESIDUE           4 A       G     2
    24   U   503 RESIDUE           4 A       U     2
    25   A   523 RESIDUE           4 A       A     2
    26   C   545 RESIDUE           4 A       C     2
    27   G   565 RESIDUE           4 A       G     2
    28   A   588 RESIDUE           4 A       A     2
    29   U   610 RESIDUE           4 A       U     2
    30   C   630 RESIDUE           4 A       C     2
    31   G   650 RESIDUE           4 A       G     2
    32   A   673 RESIDUE           4 A       A     2
    33   G   695 RESIDUE           4 A       G     2
    34   G   718 RESIDUE           4 A       G     2
    35   G   741 RESIDUE           4 A       G     2
    36   U   764 RESIDUE           4 A       U     2
    37   A   784 RESIDUE           4 A       A     2
    38   C   806 RESIDUE           4 A       C     2
    39   A   826 RESIDUE           4 A       A     2
    40   G   848 RESIDUE           4 A       G     2
    41   U   871 RESIDUE           4 A       U     2
    42   G   891 RESIDUE           4 A       G     2
    43   A   914 RESIDUE           4 A       A     2
    44   A   936 RESIDUE           4 A       A     2
    45   U   958 RESIDUE           4 A       U     2
    46   U   978 RESIDUE           4 A       U     1
    47  MG   993 RESIDUE           4 A      MG     0 ROOT
    48  MG   994 RESIDUE           4 A      MG     0 ROOT
    49 HOH   995 RESIDUE           4 A     HOH     0 ROOT
    50 HOH   996 RESIDUE           4 A     HOH     0 ROOT
    51 HOH   997 RESIDUE           4 A     HOH     0 ROOT
    52 HOH   998 RESIDUE           4 A     HOH     0 ROOT
    53 HOH   999 RESIDUE           4 A     HOH     0 ROOT
    54 HOH  1000 RESIDUE           4 A     HOH     0 ROOT
    55 HOH  1001 RESIDUE           4 A     HOH     0 ROOT
    56 HOH  1002 RESIDUE           4 A     HOH     0 ROOT
    57 HOH  1003 RESIDUE           4 A     HOH     0 ROOT
    58 HOH  1004 RESIDUE           4 A     HOH     0 ROOT
    59 HOH  1005 RESIDUE           4 A     HOH     0 ROOT
